data_{}
_symmetry_space_group_name_H-M    P1
_symmetry_Int_Tables_number       1
_symmetry_cell_setting            triclinic
loop_
_symmetry_equiv_pos_as_xyz
'x, y, z'
_cell_length_a     94.266
_cell_length_b     94.096
_cell_length_c     53.788
_cell_angle_alpha  90.105
_cell_angle_beta   90.105
_cell_angle_gamma  103.515
loop_
_atom_site_label
_atom_site_type_symbol
_atom_site_fract_x
_atom_site_fract_y
_atom_site_fract_z
_atom_type_partial_charge
C0 C 0.00456 0.52885 0.00010 0.0
C1 C 0.02135 0.53280 0.00010 0.0
C2 C 0.02963 0.53474 0.97531 0.0
C3 C 0.02964 0.53475 0.02510 0.0
C4 C 0.99628 0.52690 0.02499 0.0
C5 C 0.99627 0.52690 0.97520 0.0
C6 C 0.03329 0.52153 0.96219 0.0
C7 C 0.04256 0.52371 0.93861 0.0
C8 C 0.04619 0.53864 0.92558 0.0
C9 C 0.04253 0.55185 0.93870 0.0
C10 C 0.03326 0.54967 0.96228 0.0
C11 C 0.03330 0.52153 0.03815 0.0
C12 C 0.04258 0.52372 0.06181 0.0
C13 C 0.04621 0.53864 0.07495 0.0
C14 C 0.04255 0.55185 0.06189 0.0
C15 C 0.03328 0.54967 0.03824 0.0
C16 C 0.99262 0.54012 0.03810 0.0
C17 C 0.98335 0.53794 0.06169 0.0
C18 C 0.97972 0.52301 0.07472 0.0
C19 C 0.98338 0.50980 0.06160 0.0
C20 C 0.99265 0.51198 0.03801 0.0
C21 C 0.99261 0.54011 0.96214 0.0
C22 C 0.98333 0.53793 0.93849 0.0
C23 C 0.97970 0.52300 0.92535 0.0
C24 C 0.98336 0.50979 0.93840 0.0
C25 C 0.99264 0.51197 0.96205 0.0
H26 H 0.02908 0.51009 0.97008 0.0
H27 H 0.04679 0.51425 0.93065 0.0
H28 H 0.04673 0.56330 0.93084 0.0
H29 H 0.02903 0.55913 0.97024 0.0
H30 H 0.02909 0.51009 0.03017 0.0
H31 H 0.04681 0.51426 0.06973 0.0
H32 H 0.02904 0.55913 0.03033 0.0
H33 H 0.99683 0.55156 0.03021 0.0
H34 H 0.97912 0.54739 0.06965 0.0
H35 H 0.97919 0.49835 0.06946 0.0
H36 H 0.99688 0.50252 0.03006 0.0
H37 H 0.99682 0.55155 0.97013 0.0
H38 H 0.97910 0.54739 0.93057 0.0
H39 H 0.97916 0.49834 0.93045 0.0
H40 H 0.99687 0.50251 0.96997 0.0
H41 H 0.04675 0.56331 0.06985 0.0
C42 C 0.53032 0.02449 0.00010 0.0
C43 C 0.52639 0.00767 0.00010 0.0
C44 C 0.52445 0.99990 0.02498 0.0
C45 C 0.52445 0.99990 0.97519 0.0
C46 C 0.53226 0.03279 0.97530 0.0
C47 C 0.53226 0.03280 0.02509 0.0
C48 C 0.53764 0.99572 0.03810 0.0
C49 C 0.53547 0.98644 0.06168 0.0
C50 C 0.52057 0.98279 0.07471 0.0
C51 C 0.50738 0.98645 0.06159 0.0
C52 C 0.50955 0.99573 0.03801 0.0
C53 C 0.53764 0.99571 0.96214 0.0
C54 C 0.53547 0.98642 0.93848 0.0
C55 C 0.52057 0.98276 0.92534 0.0
C56 C 0.50738 0.98643 0.93840 0.0
C57 C 0.50955 0.99572 0.96205 0.0
C58 C 0.51906 0.03644 0.96219 0.0
C59 C 0.52123 0.04573 0.93860 0.0
C60 C 0.53613 0.04937 0.92557 0.0
C61 C 0.54932 0.04572 0.93869 0.0
C62 C 0.54715 0.03643 0.96228 0.0
C63 C 0.51907 0.03646 0.03815 0.0
C64 C 0.52124 0.04575 0.06180 0.0
C65 C 0.53614 0.04940 0.07494 0.0
C66 C 0.54933 0.04574 0.06189 0.0
C67 C 0.54716 0.03645 0.03824 0.0
H68 H 0.54906 0.99990 0.03021 0.0
H69 H 0.54492 0.98220 0.06964 0.0
H70 H 0.49595 0.98223 0.06945 0.0
H71 H 0.50010 0.99990 0.03005 0.0
H72 H 0.54906 0.99990 0.97012 0.0
H73 H 0.54491 0.98218 0.93056 0.0
H74 H 0.50010 0.99990 0.96996 0.0
H75 H 0.50764 0.03222 0.97008 0.0
H76 H 0.51179 0.04996 0.93064 0.0
H77 H 0.56075 0.04993 0.93083 0.0
H78 H 0.55660 0.03220 0.97023 0.0
H79 H 0.50764 0.03223 0.03016 0.0
H80 H 0.51179 0.04998 0.06972 0.0
H81 H 0.56076 0.04995 0.06984 0.0
H82 H 0.55660 0.03221 0.03032 0.0
H83 H 0.49594 0.98221 0.93044 0.0
N84 N 0.48977 0.52968 0.49605 0.0
N85 N 0.52876 0.49342 0.50024 0.0
H86 H 0.45669 0.55310 0.50550 0.0
H87 H 0.44212 0.50804 0.51111 0.0
H88 H 0.46864 0.50625 0.50386 0.0
H89 H 0.51781 0.54676 0.48816 0.0
H90 H 0.52502 0.57233 0.48473 0.0
H91 H 0.48218 0.57378 0.49698 0.0
H92 H 0.49313 0.51160 0.52941 0.0
H93 H 0.50799 0.49594 0.52776 0.0
H94 H 0.52389 0.51032 0.46375 0.0
H95 H 0.50845 0.52693 0.46189 0.0
H96 H 0.50404 0.47088 0.49222 0.0
H97 H 0.50528 0.44792 0.48753 0.0
H98 H 0.54998 0.45868 0.49523 0.0
H99 H 0.57090 0.48559 0.50382 0.0
H100 H 0.54666 0.52265 0.50866 0.0
H101 H 0.56997 0.52748 0.51281 0.0
C102 C 0.45877 0.54369 0.50521 0.0
C103 C 0.44691 0.53106 0.50915 0.0
C104 C 0.44975 0.51649 0.50875 0.0
C105 C 0.46576 0.51530 0.50425 0.0
C106 C 0.47601 0.52977 0.50067 0.0
C107 C 0.47192 0.54280 0.50133 0.0
C108 C 0.48467 0.55310 0.49704 0.0
C109 C 0.49695 0.54531 0.49357 0.0
C110 C 0.51064 0.55235 0.48969 0.0
C111 C 0.51515 0.56746 0.48774 0.0
C112 C 0.50388 0.57522 0.49063 0.0
C113 C 0.48917 0.56807 0.49517 0.0
C114 C 0.49888 0.52134 0.49669 0.0
C115 C 0.49927 0.51179 0.51536 0.0
C116 C 0.50836 0.50244 0.51412 0.0
C117 C 0.51704 0.50138 0.49731 0.0
C118 C 0.51738 0.51072 0.47711 0.0
C119 C 0.50833 0.52079 0.47592 0.0
C120 C 0.54061 0.47602 0.49788 0.0
C121 C 0.52739 0.47974 0.49710 0.0
C122 C 0.51317 0.46823 0.49282 0.0
C123 C 0.51393 0.45529 0.49014 0.0
C124 C 0.52789 0.45136 0.49098 0.0
C125 C 0.54099 0.46160 0.49478 0.0
C126 C 0.56565 0.49305 0.50479 0.0
C127 C 0.55059 0.48853 0.50188 0.0
C128 C 0.54265 0.50055 0.50363 0.0
C129 C 0.55138 0.51478 0.50769 0.0
C130 C 0.56503 0.51760 0.51005 0.0
C131 C 0.57378 0.50671 0.50881 0.0
C132 C 0.15770 0.57687 0.33567 0.0
C133 C 0.15702 0.56301 0.35123 0.0
C134 C 0.16723 0.56361 0.37378 0.0
C135 C 0.16672 0.54982 0.38949 0.0
C136 C 0.17702 0.55053 0.41198 0.0
C137 C 0.18780 0.56501 0.41866 0.0
C138 C 0.18827 0.57879 0.40301 0.0
C139 C 0.17799 0.57809 0.38055 0.0
C140 C 0.19438 0.55212 0.45623 0.0
C141 C 0.20437 0.55629 0.47892 0.0
C142 C 0.22017 0.55455 0.47799 0.0
C143 C 0.23088 0.56135 0.49872 0.0
C144 C 0.22540 0.56826 0.52170 0.0
C145 C 0.20922 0.56871 0.52362 0.0
C146 C 0.19870 0.56274 0.50217 0.0
C147 C 0.18281 0.56429 0.50311 0.0
C148 C 0.22551 0.54714 0.45541 0.0
C149 C 0.23623 0.57515 0.54227 0.0
C150 C 0.24714 0.56147 0.49643 0.0
C151 C 0.27096 0.57854 0.49033 0.0
C152 C 0.27720 0.56502 0.49450 0.0
C153 C 0.29382 0.56671 0.49590 0.0
C154 C 0.30416 0.58193 0.49314 0.0
C155 C 0.29790 0.59544 0.48876 0.0
C156 C 0.28128 0.59374 0.48736 0.0
C157 C 0.32077 0.58358 0.49480 0.0
C158 C 0.32694 0.57003 0.49928 0.0
C159 C 0.20368 0.57587 0.54621 0.0
C160 C 0.19321 0.56979 0.58762 0.0
C161 C 0.19249 0.58593 0.58934 0.0
C162 C 0.18332 0.59088 0.60983 0.0
C163 C 0.17486 0.57965 0.62848 0.0
C164 C 0.17562 0.56351 0.62676 0.0
C165 C 0.18481 0.55858 0.60632 0.0
C166 C 0.16555 0.58449 0.64883 0.0
C167 C 0.15704 0.57315 0.66724 0.0
O168 O 0.19778 0.56585 0.44077 0.0
O169 O 0.20159 0.56479 0.56687 0.0
O170 O 0.25469 0.57695 0.48978 0.0
H171 H 0.16574 0.58752 0.34090 0.0
H172 H 0.14901 0.55234 0.34607 0.0
H173 H 0.15875 0.53911 0.38448 0.0
H174 H 0.17665 0.54035 0.42366 0.0
H175 H 0.19622 0.58951 0.40807 0.0
H176 H 0.17835 0.58827 0.36893 0.0
H177 H 0.19708 0.54259 0.44564 0.0
H178 H 0.18245 0.54939 0.46223 0.0
H179 H 0.18152 0.57178 0.51921 0.0
H180 H 0.17514 0.55309 0.50586 0.0
H181 H 0.18004 0.56921 0.48489 0.0
H182 H 0.21796 0.54732 0.43889 0.0
H183 H 0.22536 0.53531 0.46030 0.0
H184 H 0.23710 0.55313 0.45040 0.0
H185 H 0.23032 0.58035 0.55695 0.0
H186 H 0.24536 0.58387 0.53371 0.0
H187 H 0.24106 0.56636 0.55123 0.0
H188 H 0.25141 0.55835 0.51498 0.0
H189 H 0.24891 0.55361 0.48122 0.0
H190 H 0.26952 0.55377 0.49665 0.0
H191 H 0.29848 0.55672 0.49904 0.0
H192 H 0.30557 0.60669 0.48662 0.0
H193 H 0.27661 0.60374 0.48423 0.0
H194 H 0.32848 0.59482 0.49274 0.0
H195 H 0.31920 0.55881 0.50132 0.0
H196 H 0.21186 0.58630 0.55203 0.0
H197 H 0.19277 0.57845 0.54137 0.0
H198 H 0.19867 0.59418 0.57537 0.0
H199 H 0.18273 0.60282 0.61113 0.0
H200 H 0.16934 0.55523 0.64059 0.0
H201 H 0.18532 0.54663 0.60491 0.0
H202 H 0.16494 0.59643 0.65026 0.0
H203 H 0.15768 0.56123 0.66574 0.0
C204 C 0.57311 0.16083 0.33566 0.0
C205 C 0.58678 0.16735 0.35133 0.0
C206 C 0.58561 0.17711 0.37387 0.0
C207 C 0.59919 0.18374 0.38969 0.0
C208 C 0.59790 0.19353 0.41217 0.0
C209 C 0.58305 0.19667 0.41873 0.0
C210 C 0.56947 0.19000 0.40297 0.0
C211 C 0.57076 0.18023 0.38053 0.0
C212 C 0.59534 0.20984 0.45640 0.0
C213 C 0.59067 0.21754 0.47906 0.0
C214 C 0.59147 0.23403 0.47814 0.0
C215 C 0.58417 0.24108 0.49882 0.0
C216 C 0.57770 0.23210 0.52174 0.0
C217 C 0.57818 0.21590 0.52366 0.0
C218 C 0.58465 0.20861 0.50226 0.0
C219 C 0.58404 0.19212 0.50319 0.0
C220 C 0.59846 0.24314 0.45562 0.0
C221 C 0.57030 0.23921 0.54226 0.0
C222 C 0.58313 0.25706 0.49652 0.0
C223 C 0.56497 0.27173 0.49028 0.0
C224 C 0.57791 0.28489 0.49455 0.0
C225 C 0.57529 0.30042 0.49594 0.0
C226 C 0.55973 0.30274 0.49305 0.0
C227 C 0.54681 0.28957 0.48857 0.0
C228 C 0.54943 0.27404 0.48719 0.0
C229 C 0.55715 0.31827 0.49469 0.0
C230 C 0.57013 0.33138 0.49929 0.0
C231 C 0.57146 0.20673 0.54619 0.0
C232 C 0.57804 0.19954 0.58766 0.0
C233 C 0.56221 0.19047 0.58925 0.0
C234 C 0.55787 0.17886 0.60970 0.0
C235 C 0.56940 0.17633 0.62844 0.0
C236 C 0.58522 0.18543 0.62685 0.0
C237 C 0.58954 0.19706 0.60644 0.0
C238 C 0.56517 0.16463 0.64876 0.0
C239 C 0.57681 0.16211 0.66726 0.0
O240 O 0.58165 0.20609 0.44083 0.0
O241 O 0.58247 0.21040 0.56694 0.0
O242 O 0.56747 0.25650 0.48975 0.0
H243 H 0.56218 0.16325 0.34080 0.0
H244 H 0.59773 0.16496 0.34625 0.0
H245 H 0.61019 0.18142 0.38477 0.0
H246 H 0.60793 0.19844 0.42394 0.0
H247 H 0.55847 0.19230 0.40794 0.0
H248 H 0.56072 0.17531 0.36882 0.0
H249 H 0.60456 0.21745 0.44589 0.0
H250 H 0.59871 0.19949 0.46243 0.0
H251 H 0.57675 0.18697 0.51923 0.0
H252 H 0.59549 0.19035 0.50603 0.0
H253 H 0.57936 0.18684 0.48493 0.0
H254 H 0.59871 0.23560 0.43910 0.0
H255 H 0.61009 0.24912 0.46060 0.0
H256 H 0.59190 0.25148 0.45056 0.0
H257 H 0.56553 0.23069 0.55689 0.0
H258 H 0.56120 0.24371 0.53362 0.0
H259 H 0.57866 0.24853 0.55129 0.0
H260 H 0.58595 0.26290 0.51510 0.0
H261 H 0.59075 0.26289 0.48138 0.0
H262 H 0.58941 0.28314 0.49680 0.0
H263 H 0.58485 0.31019 0.49916 0.0
H264 H 0.53530 0.29130 0.48634 0.0
H265 H 0.53987 0.26426 0.48398 0.0
H266 H 0.54566 0.32007 0.49255 0.0
H267 H 0.58160 0.32955 0.50142 0.0
H268 H 0.56074 0.20940 0.55193 0.0
H269 H 0.56954 0.19462 0.54134 0.0
H270 H 0.55374 0.19229 0.57521 0.0
H271 H 0.54616 0.17210 0.61090 0.0
H272 H 0.59373 0.18353 0.64075 0.0
H273 H 0.60127 0.20375 0.60513 0.0
H274 H 0.55347 0.15785 0.65009 0.0
H275 H 0.58850 0.16891 0.66585 0.0
C276 C 0.86960 0.48283 0.66463 0.0
C277 C 0.86381 0.46896 0.64895 0.0
C278 C 0.85388 0.46956 0.62641 0.0
C279 C 0.84797 0.45577 0.61059 0.0
C280 C 0.83800 0.45648 0.58811 0.0
C281 C 0.83397 0.47095 0.58155 0.0
C282 C 0.83993 0.48473 0.59730 0.0
C283 C 0.84987 0.48403 0.61975 0.0
C284 C 0.82138 0.45806 0.54387 0.0
C285 C 0.81333 0.46222 0.52121 0.0
C286 C 0.79672 0.46048 0.52213 0.0
C287 C 0.78918 0.46727 0.50145 0.0
C288 C 0.79788 0.47418 0.47852 0.0
C289 C 0.81427 0.47464 0.47661 0.0
C290 C 0.82201 0.46868 0.49801 0.0
C291 C 0.83863 0.47024 0.49709 0.0
C292 C 0.78792 0.45306 0.54465 0.0
C293 C 0.79026 0.48107 0.45801 0.0
C294 C 0.77297 0.46738 0.50374 0.0
C295 C 0.75711 0.48445 0.50997 0.0
C296 C 0.74456 0.47092 0.50570 0.0
C297 C 0.72873 0.47261 0.50431 0.0
C298 C 0.72548 0.48782 0.50720 0.0
C299 C 0.73804 0.50133 0.51168 0.0
C300 C 0.75387 0.49965 0.51306 0.0
C301 C 0.70964 0.48947 0.50555 0.0
C302 C 0.69715 0.47591 0.50095 0.0
C303 C 0.82315 0.48181 0.45408 0.0
C304 C 0.83078 0.47573 0.41262 0.0
C305 C 0.83903 0.49187 0.41102 0.0
C306 C 0.85051 0.49682 0.39058 0.0
C307 C 0.85374 0.48560 0.37184 0.0
C308 C 0.84545 0.46946 0.37343 0.0
C309 C 0.83396 0.46452 0.39383 0.0
C310 C 0.86530 0.49045 0.35152 0.0
C311 C 0.86852 0.47911 0.33303 0.0
O312 O 0.82438 0.47179 0.55944 0.0
O313 O 0.82007 0.47073 0.43333 0.0
O314 O 0.77264 0.48286 0.51051 0.0
H315 H 0.86653 0.49347 0.65948 0.0
H316 H 0.86686 0.45830 0.65404 0.0
H317 H 0.85095 0.44506 0.61552 0.0
H318 H 0.83362 0.44630 0.57635 0.0
H319 H 0.83697 0.49545 0.59233 0.0
H320 H 0.85426 0.49422 0.63146 0.0
H321 H 0.81423 0.44852 0.55438 0.0
H322 H 0.83204 0.45534 0.53785 0.0
H323 H 0.84340 0.47772 0.48104 0.0
H324 H 0.84108 0.45904 0.49425 0.0
H325 H 0.84369 0.47516 0.51535 0.0
H326 H 0.79556 0.45325 0.56117 0.0
H327 H 0.78256 0.44123 0.53967 0.0
H328 H 0.77912 0.45904 0.54971 0.0
H329 H 0.79859 0.48627 0.44338 0.0
H330 H 0.78519 0.48979 0.46664 0.0
H331 H 0.78133 0.47228 0.44898 0.0
H332 H 0.76724 0.46426 0.48516 0.0
H333 H 0.76753 0.45952 0.51889 0.0
H334 H 0.74700 0.45968 0.50346 0.0
H335 H 0.71941 0.46261 0.50109 0.0
H336 H 0.73562 0.51259 0.51391 0.0
H337 H 0.76320 0.50965 0.51627 0.0
H338 H 0.70717 0.50070 0.50769 0.0
H339 H 0.69967 0.46469 0.49883 0.0
H340 H 0.81983 0.49223 0.44834 0.0
H341 H 0.83526 0.48440 0.45893 0.0
H342 H 0.83670 0.50012 0.42506 0.0
H343 H 0.85666 0.50877 0.38937 0.0
H344 H 0.84787 0.46118 0.35953 0.0
H345 H 0.82788 0.45257 0.39515 0.0
H346 H 0.87147 0.50238 0.35019 0.0
H347 H 0.86233 0.46718 0.33443 0.0
C348 C 0.47948 0.87225 0.66462 0.0
C349 C 0.49315 0.87213 0.64905 0.0
C350 C 0.49197 0.86182 0.62650 0.0
C351 C 0.50555 0.86154 0.61079 0.0
C352 C 0.50426 0.85115 0.58830 0.0
C353 C 0.48940 0.84105 0.58162 0.0
C354 C 0.47582 0.84137 0.59727 0.0
C355 C 0.47711 0.85175 0.61973 0.0
C356 C 0.50169 0.83364 0.54404 0.0
C357 C 0.49701 0.82375 0.52135 0.0
C358 C 0.49781 0.80763 0.52228 0.0
C359 C 0.49050 0.79716 0.50154 0.0
C360 C 0.48403 0.80312 0.47856 0.0
C361 C 0.48452 0.81955 0.47665 0.0
C362 C 0.49100 0.82987 0.49810 0.0
C363 C 0.49039 0.84607 0.49717 0.0
C364 C 0.50479 0.80179 0.54485 0.0
C365 C 0.47663 0.79254 0.45799 0.0
C366 C 0.48945 0.78069 0.50383 0.0
C367 C 0.47128 0.75753 0.50993 0.0
C368 C 0.48422 0.75042 0.50576 0.0
C369 C 0.48159 0.73367 0.50435 0.0
C370 C 0.46603 0.72407 0.50712 0.0
C371 C 0.45311 0.73119 0.51150 0.0
C372 C 0.45574 0.74795 0.51290 0.0
C373 C 0.46344 0.70733 0.50545 0.0
C374 C 0.47642 0.70029 0.50096 0.0
C375 C 0.47780 0.82558 0.45407 0.0
C376 C 0.48439 0.83584 0.41265 0.0
C377 C 0.46856 0.83750 0.41094 0.0
C378 C 0.46423 0.84709 0.39046 0.0
C379 C 0.47576 0.85502 0.37181 0.0
C380 C 0.49158 0.85331 0.37352 0.0
C381 C 0.49590 0.84371 0.39396 0.0
C382 C 0.47153 0.86473 0.35145 0.0
C383 C 0.48318 0.87270 0.33305 0.0
O384 O 0.48799 0.83098 0.55951 0.0
O385 O 0.48881 0.82705 0.43340 0.0
O386 O 0.47380 0.77393 0.51048 0.0
H387 H 0.46855 0.86472 0.65939 0.0
H388 H 0.50410 0.87964 0.65422 0.0
H389 H 0.51655 0.86900 0.61580 0.0
H390 H 0.51429 0.85093 0.57661 0.0
H391 H 0.46482 0.83393 0.59221 0.0
H392 H 0.46708 0.85197 0.63136 0.0
H393 H 0.51091 0.83034 0.55463 0.0
H394 H 0.50506 0.84557 0.53805 0.0
H395 H 0.48311 0.84781 0.48107 0.0
H396 H 0.50185 0.85320 0.49441 0.0
H397 H 0.48572 0.84916 0.51539 0.0
H398 H 0.50505 0.80945 0.56137 0.0
H399 H 0.51642 0.80125 0.53996 0.0
H400 H 0.49823 0.79038 0.54986 0.0
H401 H 0.47186 0.79883 0.44332 0.0
H402 H 0.46753 0.78379 0.46656 0.0
H403 H 0.48499 0.78714 0.44903 0.0
H404 H 0.49227 0.77618 0.48528 0.0
H405 H 0.49707 0.77844 0.51904 0.0
H406 H 0.49572 0.75755 0.50360 0.0
H407 H 0.49115 0.72837 0.50121 0.0
H408 H 0.44160 0.72408 0.51364 0.0
H409 H 0.44618 0.75326 0.51603 0.0
H410 H 0.45195 0.70016 0.50751 0.0
H411 H 0.48789 0.70749 0.49892 0.0
H412 H 0.46708 0.81789 0.44825 0.0
H413 H 0.47590 0.83679 0.45890 0.0
H414 H 0.46009 0.83172 0.42491 0.0
H415 H 0.45252 0.84838 0.38916 0.0
H416 H 0.50009 0.85919 0.35968 0.0
H417 H 0.50762 0.84250 0.39536 0.0
H418 H 0.45984 0.86604 0.35003 0.0
H419 H 0.49486 0.87137 0.33454 0.0
C420 C 0.40404 0.53111 0.49423 0.0
C421 C 0.40317 0.54545 0.50733 0.0
C422 C 0.41640 0.55423 0.52197 0.0
C423 C 0.43051 0.54868 0.52352 0.0
C424 C 0.43138 0.53435 0.51043 0.0
C425 C 0.41815 0.52556 0.49579 0.0
C426 C 0.38908 0.55102 0.50579 0.0
C427 C 0.37500 0.55662 0.50430 0.0
C428 C 0.36094 0.56224 0.50282 0.0
C429 C 0.34688 0.56788 0.50137 0.0
H430 H 0.39425 0.52461 0.48339 0.0
H431 H 0.41576 0.56484 0.53167 0.0
H432 H 0.44030 0.55519 0.53435 0.0
H433 H 0.41879 0.51495 0.48610 0.0
C434 C 0.55357 0.42202 0.49245 0.0
C435 C 0.54270 0.40700 0.49318 0.0
C436 C 0.52618 0.40605 0.49232 0.0
C437 C 0.52051 0.42010 0.49071 0.0
C438 C 0.53137 0.43511 0.48998 0.0
C439 C 0.54790 0.43607 0.49085 0.0
C440 C 0.54834 0.39294 0.49479 0.0
C441 C 0.55395 0.37885 0.49639 0.0
C442 C 0.55953 0.36475 0.49798 0.0
C443 C 0.56509 0.35063 0.49958 0.0
H444 H 0.56580 0.42273 0.49309 0.0
H445 H 0.51813 0.39493 0.49286 0.0
H446 H 0.50828 0.41938 0.49006 0.0
H447 H 0.55595 0.44719 0.49031 0.0
C448 C 0.60439 0.48539 0.50362 0.0
C449 C 0.61879 0.49705 0.50630 0.0
C450 C 0.61850 0.51318 0.51044 0.0
C451 C 0.60381 0.51764 0.51190 0.0
C452 C 0.58941 0.50598 0.50923 0.0
C453 C 0.58970 0.48985 0.50509 0.0
C454 C 0.63349 0.49262 0.50485 0.0
C455 C 0.64821 0.48821 0.50340 0.0
C456 C 0.66294 0.48383 0.50196 0.0
C457 C 0.67768 0.47947 0.50053 0.0
H458 H 0.60460 0.47345 0.50056 0.0
H459 H 0.62916 0.52182 0.51241 0.0
H460 H 0.60360 0.52958 0.51497 0.0
H461 H 0.57904 0.48121 0.50310 0.0
C462 C 0.48261 0.60672 0.49257 0.0
C463 C 0.49444 0.62110 0.49346 0.0
C464 C 0.51068 0.62073 0.49297 0.0
C465 C 0.51510 0.60600 0.49159 0.0
C466 C 0.50327 0.59162 0.49070 0.0
C467 C 0.48703 0.59198 0.49119 0.0
C468 C 0.49004 0.63584 0.49484 0.0
C469 C 0.48568 0.65061 0.49621 0.0
C470 C 0.48135 0.66539 0.49758 0.0
C471 C 0.47704 0.68018 0.49896 0.0
H472 H 0.47058 0.60698 0.49293 0.0
H473 H 0.51944 0.63138 0.49364 0.0
H474 H 0.52713 0.60574 0.49123 0.0
H475 H 0.47827 0.58134 0.49053 0.0
C476 C 0.05521 0.54149 0.90034 0.0
C477 C 0.06518 0.54515 0.87745 0.0
C478 C 0.07514 0.54881 0.85456 0.0
C479 C 0.06948 0.55476 0.83081 0.0
C480 C 0.07945 0.55842 0.80793 0.0
C481 C 0.09509 0.55613 0.80880 0.0
C482 C 0.10076 0.55018 0.83255 0.0
C483 C 0.09078 0.54652 0.85543 0.0
C484 C 0.10506 0.55981 0.78592 0.0
C485 C 0.12071 0.55752 0.78679 0.0
C486 C 0.13068 0.56120 0.76391 0.0
C487 C 0.12500 0.56714 0.74015 0.0
C488 C 0.10935 0.56942 0.73928 0.0
C489 C 0.09938 0.56575 0.76217 0.0
C490 C 0.13496 0.57081 0.71726 0.0
C491 C 0.14491 0.57448 0.69435 0.0
H492 H 0.05789 0.55646 0.83016 0.0
H493 H 0.07525 0.56283 0.79035 0.0
H494 H 0.11234 0.54848 0.83320 0.0
H495 H 0.09498 0.54210 0.87301 0.0
H496 H 0.12492 0.55312 0.80437 0.0
H497 H 0.14226 0.55952 0.76455 0.0
H498 H 0.10515 0.57382 0.72170 0.0
H499 H 0.08780 0.56743 0.76153 0.0
C500 C 0.53898 0.05842 0.90032 0.0
C501 C 0.54263 0.06840 0.87743 0.0
C502 C 0.54629 0.07838 0.85454 0.0
C503 C 0.53393 0.08227 0.83915 0.0
C504 C 0.53760 0.09225 0.81627 0.0
C505 C 0.55362 0.09835 0.80877 0.0
C506 C 0.56598 0.09447 0.82415 0.0
C507 C 0.56231 0.08448 0.84703 0.0
C508 C 0.55728 0.10835 0.78589 0.0
C509 C 0.57330 0.11446 0.77839 0.0
C510 C 0.57695 0.12445 0.75551 0.0
C511 C 0.56459 0.12832 0.74012 0.0
C512 C 0.54857 0.12221 0.74762 0.0
C513 C 0.54492 0.11222 0.77050 0.0
C514 C 0.56824 0.13831 0.71724 0.0
C515 C 0.57187 0.14830 0.69435 0.0
H516 H 0.52207 0.07775 0.84470 0.0
H517 H 0.52845 0.09513 0.80489 0.0
H518 H 0.57784 0.09899 0.81860 0.0
H519 H 0.57146 0.08160 0.85841 0.0
H520 H 0.58245 0.11159 0.78977 0.0
H521 H 0.58881 0.12899 0.74996 0.0
H522 H 0.53942 0.12508 0.73624 0.0
H523 H 0.53306 0.10769 0.77606 0.0
C524 C 0.97089 0.52006 0.09969 0.0
C525 C 0.96102 0.51611 0.12264 0.0
C526 C 0.95115 0.51217 0.14559 0.0
C527 C 0.94787 0.52436 0.16219 0.0
C528 C 0.93800 0.52041 0.18513 0.0
C529 C 0.93141 0.50427 0.19149 0.0
C530 C 0.93470 0.49208 0.17489 0.0
C531 C 0.94457 0.49603 0.15196 0.0
C532 C 0.92153 0.50032 0.21442 0.0
C533 C 0.91494 0.48418 0.22078 0.0
C534 C 0.90506 0.48024 0.24372 0.0
C535 C 0.90179 0.49244 0.26032 0.0
C536 C 0.90839 0.50858 0.25396 0.0
C537 C 0.91826 0.51252 0.23102 0.0
C538 C 0.89192 0.48851 0.28326 0.0
C539 C 0.88205 0.48459 0.30622 0.0
H540 H 0.95275 0.53631 0.15748 0.0
H541 H 0.93556 0.52943 0.19741 0.0
H542 H 0.92982 0.48013 0.17960 0.0
H543 H 0.94701 0.48701 0.13968 0.0
H544 H 0.91736 0.47515 0.20850 0.0
H545 H 0.90017 0.46830 0.24842 0.0
H546 H 0.90596 0.51761 0.26624 0.0
H547 H 0.92315 0.52447 0.22631 0.0
C548 C 0.51764 0.97394 0.09966 0.0
C549 C 0.51371 0.96405 0.12261 0.0
C550 C 0.50979 0.95416 0.14556 0.0
C551 C 0.52166 0.94817 0.15883 0.0
C552 C 0.51773 0.93828 0.18178 0.0
C553 C 0.50193 0.93438 0.19145 0.0
C554 C 0.49006 0.94037 0.17818 0.0
C555 C 0.49399 0.95025 0.15523 0.0
C556 C 0.49801 0.92450 0.21442 0.0
C557 C 0.48221 0.92060 0.22411 0.0
C558 C 0.47830 0.91072 0.24707 0.0
C559 C 0.49017 0.90473 0.26032 0.0
C560 C 0.50596 0.90862 0.25062 0.0
C561 C 0.50988 0.91851 0.22767 0.0
C562 C 0.48625 0.89484 0.28328 0.0
C563 C 0.48235 0.88495 0.30623 0.0
H564 H 0.53335 0.95106 0.15166 0.0
H565 H 0.52651 0.93385 0.19161 0.0
H566 H 0.47837 0.93748 0.18535 0.0
H567 H 0.48521 0.95468 0.14540 0.0
H568 H 0.47342 0.92503 0.21430 0.0
H569 H 0.46661 0.90784 0.25426 0.0
H570 H 0.51475 0.90419 0.26044 0.0
H571 H 0.52157 0.92139 0.22048 0.0
C572 C 0.53898 0.05845 0.10026 0.0
C573 C 0.54263 0.06844 0.12323 0.0
C574 C 0.54628 0.07843 0.14620 0.0
C575 C 0.56100 0.07999 0.15966 0.0
C576 C 0.56464 0.08998 0.18262 0.0
C577 C 0.55356 0.09842 0.19214 0.0
C578 C 0.53884 0.09687 0.17869 0.0
C579 C 0.53520 0.08687 0.15573 0.0
C580 C 0.55721 0.10842 0.21509 0.0
C581 C 0.54614 0.11687 0.22460 0.0
C582 C 0.54980 0.12687 0.24756 0.0
C583 C 0.56451 0.12841 0.26102 0.0
C584 C 0.57559 0.11996 0.25150 0.0
C585 C 0.57193 0.10997 0.22855 0.0
C586 C 0.56817 0.13841 0.28398 0.0
C587 C 0.57185 0.14840 0.30695 0.0
H588 H 0.56920 0.07374 0.15262 0.0
H589 H 0.57554 0.09114 0.19258 0.0
H590 H 0.53064 0.10311 0.18573 0.0
H591 H 0.52430 0.08571 0.14577 0.0
H592 H 0.53524 0.11573 0.21466 0.0
H593 H 0.54161 0.13313 0.25460 0.0
H594 H 0.58649 0.12111 0.26146 0.0
H595 H 0.58012 0.10371 0.22150 0.0
C596 C 0.05524 0.54149 0.10026 0.0
C597 C 0.06521 0.54516 0.12323 0.0
C598 C 0.07518 0.54882 0.14621 0.0
C599 C 0.09188 0.55253 0.14312 0.0
C600 C 0.10184 0.55619 0.16610 0.0
C601 C 0.09511 0.55614 0.19216 0.0
C602 C 0.07841 0.55242 0.19526 0.0
C603 C 0.06845 0.54876 0.17228 0.0
C604 C 0.10508 0.55981 0.21514 0.0
C605 C 0.09835 0.55977 0.24121 0.0
C606 C 0.10832 0.56344 0.26418 0.0
C607 C 0.12502 0.56714 0.26107 0.0
C608 C 0.13175 0.56719 0.23500 0.0
C609 C 0.12178 0.56352 0.21203 0.0
C610 C 0.13499 0.57082 0.28404 0.0
C611 C 0.14499 0.57448 0.30698 0.0
H612 H 0.09687 0.55257 0.12382 0.0
H613 H 0.11420 0.55894 0.16381 0.0
H614 H 0.07342 0.55239 0.21456 0.0
H615 H 0.05609 0.54600 0.17456 0.0
H616 H 0.08599 0.55702 0.24352 0.0
H617 H 0.10334 0.56342 0.28348 0.0
H618 H 0.14411 0.56993 0.23270 0.0
H619 H 0.12675 0.56354 0.19273 0.0
C620 C 0.97085 0.52005 0.90031 0.0
C621 C 0.96097 0.51611 0.87729 0.0
C622 C 0.95109 0.51216 0.85426 0.0
C623 C 0.94650 0.52430 0.83929 0.0
C624 C 0.93662 0.52035 0.81627 0.0
C625 C 0.93133 0.50426 0.80822 0.0
C626 C 0.93591 0.49213 0.82319 0.0
C627 C 0.94579 0.49608 0.84621 0.0
C628 C 0.92146 0.50032 0.78518 0.0
C629 C 0.91617 0.48424 0.77711 0.0
C630 C 0.90629 0.48030 0.75408 0.0
C631 C 0.90170 0.49244 0.73912 0.0
C632 C 0.90700 0.50852 0.74719 0.0
C633 C 0.91687 0.51246 0.77023 0.0
C634 C 0.89183 0.48850 0.71609 0.0
C635 C 0.88195 0.48459 0.69305 0.0
H636 H 0.95042 0.53621 0.84525 0.0
H637 H 0.93323 0.52933 0.80518 0.0
H638 H 0.93199 0.48022 0.81723 0.0
H639 H 0.94917 0.48710 0.85731 0.0
H640 H 0.91955 0.47525 0.78818 0.0
H641 H 0.90238 0.46839 0.74809 0.0
H642 H 0.90360 0.51751 0.73612 0.0
H643 H 0.92079 0.52436 0.77621 0.0
C644 C 0.51763 0.97391 0.90032 0.0
C645 C 0.51371 0.96402 0.87728 0.0
C646 C 0.50979 0.95413 0.85424 0.0
C647 C 0.52168 0.94822 0.84091 0.0
C648 C 0.51775 0.93833 0.81788 0.0
C649 C 0.50193 0.93434 0.80818 0.0
C650 C 0.49004 0.94025 0.82151 0.0
C651 C 0.49397 0.95015 0.84453 0.0
C652 C 0.49800 0.92444 0.78516 0.0
C653 C 0.48219 0.92045 0.77545 0.0
C654 C 0.47827 0.91054 0.75243 0.0
C655 C 0.49016 0.90465 0.73910 0.0
C656 C 0.50598 0.90864 0.74880 0.0
C657 C 0.50990 0.91854 0.77182 0.0
C658 C 0.48625 0.89475 0.71607 0.0
C659 C 0.48235 0.88485 0.69303 0.0
H660 H 0.53339 0.95117 0.84810 0.0
H661 H 0.52654 0.93395 0.80802 0.0
H662 H 0.47833 0.93730 0.81432 0.0
H663 H 0.48518 0.95453 0.85439 0.0
H664 H 0.47338 0.92481 0.78531 0.0
H665 H 0.46656 0.90758 0.74525 0.0
H666 H 0.51479 0.90427 0.73894 0.0
H667 H 0.52161 0.92151 0.77901 0.0
