data_{}
_symmetry_space_group_name_H-M    P1
_symmetry_Int_Tables_number       1
_symmetry_cell_setting            triclinic
loop_
_symmetry_equiv_pos_as_xyz
'x, y, z'
_cell_length_a     88.900
_cell_length_b     90.029
_cell_length_c     49.943
_cell_angle_alpha  90.130
_cell_angle_beta   90.129
_cell_angle_gamma  96.134
loop_
_atom_site_label
_atom_site_type_symbol
_atom_site_fract_x
_atom_site_fract_y
_atom_site_fract_z
_atom_type_partial_charge
H0 H 0.96924 0.49952 0.96086 0.0
H1 H 0.01335 0.47627 0.95052 0.0
H2 H 0.01209 0.47715 0.98179 0.0
H3 H 0.00843 0.50127 0.94654 0.0
H4 H 0.00840 0.50305 0.97786 0.0
H5 H 0.98720 0.48309 0.94959 0.0
H6 H 0.98702 0.48540 0.98073 0.0
H7 H 0.99156 0.51907 0.98299 0.0
H8 H 0.97491 0.52264 0.97774 0.0
H9 H 0.03242 0.50691 0.98891 0.0
H10 H 0.04774 0.49982 0.99084 0.0
H11 H 0.03217 0.50354 0.93906 0.0
H12 H 0.04841 0.49908 0.94516 0.0
H13 H 0.98537 0.50307 0.92055 0.0
H14 H 0.98946 0.51864 0.93452 0.0
H15 H 0.04392 0.50605 0.03934 0.0
H16 H 0.99990 0.52930 0.04968 0.0
H17 H 0.00108 0.52842 0.01841 0.0
H18 H 0.00474 0.50430 0.05366 0.0
H19 H 0.00477 0.50252 0.02234 0.0
H20 H 0.02597 0.52248 0.05061 0.0
H21 H 0.02615 0.52016 0.01947 0.0
H22 H 0.02161 0.48649 0.01721 0.0
H23 H 0.03826 0.48293 0.02246 0.0
H24 H 0.98075 0.49866 0.01129 0.0
H25 H 0.96543 0.50575 0.00936 0.0
H26 H 0.98100 0.50203 0.06114 0.0
H27 H 0.96476 0.50649 0.05504 0.0
H28 H 0.02780 0.50250 0.07965 0.0
H29 H 0.02371 0.48693 0.06568 0.0
C30 C 0.01531 0.48280 0.96588 0.0
C31 C 0.00600 0.49607 0.96324 0.0
C32 C 0.98935 0.49037 0.96379 0.0
C33 C 0.98111 0.51473 0.98209 0.0
C34 C 0.03683 0.49757 0.99105 0.0
C35 C 0.03791 0.49517 0.94264 0.0
C36 C 0.98180 0.51014 0.93311 0.0
C37 C 0.99786 0.52276 0.03432 0.0
C38 C 0.00717 0.50950 0.03696 0.0
C39 C 0.02382 0.51519 0.03641 0.0
C40 C 0.03206 0.49083 0.01811 0.0
C41 C 0.97634 0.50800 0.00915 0.0
C42 C 0.97526 0.51040 0.05756 0.0
C43 C 0.03137 0.49543 0.06709 0.0
N44 N 0.03215 0.48760 0.96781 0.0
N45 N 0.97938 0.50280 0.96033 0.0
N46 N 0.98102 0.51797 0.03240 0.0
N47 N 0.03379 0.50277 0.03987 0.0
H48 H 0.50984 0.96655 0.96088 0.0
H49 H 0.53352 0.01502 0.95076 0.0
H50 H 0.53262 0.01358 0.98202 0.0
H51 H 0.50818 0.00489 0.94655 0.0
H52 H 0.50638 0.00448 0.97786 0.0
H53 H 0.52653 0.98775 0.94977 0.0
H54 H 0.52419 0.98709 0.98088 0.0
H55 H 0.49009 0.98447 0.98284 0.0
H56 H 0.48643 0.96727 0.97756 0.0
H57 H 0.50254 0.02740 0.98888 0.0
H58 H 0.50977 0.04402 0.99086 0.0
H59 H 0.50596 0.02786 0.93906 0.0
H60 H 0.51052 0.04484 0.94519 0.0
H61 H 0.50629 0.98173 0.92055 0.0
H62 H 0.49052 0.98249 0.93438 0.0
H63 H 0.50344 0.03894 0.03932 0.0
H64 H 0.47976 0.99048 0.04944 0.0
H65 H 0.48066 0.99191 0.01817 0.0
H66 H 0.50510 0.00010 0.05365 0.0
H67 H 0.50690 0.00102 0.02234 0.0
H68 H 0.48675 0.01774 0.05043 0.0
H69 H 0.48909 0.01841 0.01932 0.0
H70 H 0.52319 0.02103 0.01736 0.0
H71 H 0.52685 0.03822 0.02264 0.0
H72 H 0.51074 0.97809 0.01132 0.0
H73 H 0.50352 0.96148 0.00934 0.0
H74 H 0.50733 0.97763 0.06114 0.0
H75 H 0.50276 0.96065 0.05501 0.0
H76 H 0.50699 0.02376 0.07965 0.0
H77 H 0.52276 0.02301 0.06583 0.0
C78 C 0.52691 0.01557 0.96606 0.0
C79 C 0.51344 0.00359 0.96330 0.0
C80 C 0.51916 0.98834 0.96390 0.0
C81 C 0.49446 0.97507 0.98198 0.0
C82 C 0.51201 0.03372 0.99110 0.0
C83 C 0.51445 0.03530 0.94271 0.0
C84 C 0.49912 0.97672 0.93305 0.0
C85 C 0.48638 0.98992 0.03414 0.0
C86 C 0.49984 0.00191 0.03690 0.0
C87 C 0.49412 0.01715 0.03630 0.0
C88 C 0.51883 0.03043 0.01822 0.0
C89 C 0.50127 0.97177 0.00910 0.0
C90 C 0.49883 0.97020 0.05749 0.0
C91 C 0.51416 0.02878 0.06715 0.0
N92 N 0.52210 0.03120 0.96795 0.0
N93 N 0.50654 0.97587 0.96033 0.0
N94 N 0.49118 0.97429 0.03226 0.0
N95 N 0.50674 0.02963 0.03987 0.0
Cu96 Cu 0.50659 0.50275 0.50006 0.0
C97 C 0.50580 0.53362 0.52218 0.0
C98 C 0.50191 0.54819 0.52155 0.0
C99 C 0.49303 0.55213 0.50095 0.0
H100 H 0.50133 0.47474 0.46380 0.0
H101 H 0.53098 0.46208 0.53192 0.0
H102 H 0.53888 0.51346 0.52106 0.0
H103 H 0.56430 0.51939 0.45468 0.0
H104 H 0.54198 0.51428 0.43049 0.0
C105 C 0.48851 0.54103 0.48230 0.0
C106 C 0.47329 0.49214 0.49780 0.0
C107 C 0.45900 0.48862 0.50912 0.0
C108 C 0.45816 0.48841 0.53661 0.0
C109 C 0.47157 0.49173 0.55085 0.0
N110 N 0.51189 0.48180 0.49647 0.0
N111 N 0.52063 0.47805 0.51685 0.0
H112 H 0.51185 0.53076 0.53632 0.0
N113 N 0.52772 0.50987 0.48728 0.0
N114 N 0.52845 0.50999 0.46064 0.0
H115 H 0.47429 0.49204 0.47906 0.0
H116 H 0.50531 0.55511 0.53493 0.0
H117 H 0.47120 0.49122 0.56963 0.0
H118 H 0.48220 0.54342 0.46819 0.0
H119 H 0.44887 0.48611 0.54544 0.0
N120 N 0.50129 0.52370 0.50365 0.0
N121 N 0.49254 0.52745 0.48327 0.0
N122 N 0.48546 0.49563 0.51284 0.0
N123 N 0.48472 0.49551 0.53947 0.0
C124 C 0.50738 0.47188 0.47794 0.0
C125 C 0.51126 0.45731 0.47857 0.0
C126 C 0.52014 0.45337 0.49917 0.0
C127 C 0.52466 0.46447 0.51782 0.0
C128 C 0.53989 0.51336 0.50232 0.0
C129 C 0.55418 0.51688 0.49100 0.0
C130 C 0.55502 0.51710 0.46351 0.0
C131 C 0.54161 0.51377 0.44927 0.0
H132 H 0.50786 0.45039 0.46518 0.0
C133 C 0.14523 0.43621 0.32231 0.0
C134 C 0.14681 0.42211 0.33907 0.0
C135 C 0.15757 0.42302 0.36335 0.0
C136 C 0.15931 0.40901 0.38027 0.0
C137 C 0.17014 0.41003 0.40450 0.0
C138 C 0.17920 0.42503 0.41170 0.0
C139 C 0.17742 0.43904 0.39485 0.0
C140 C 0.16661 0.43802 0.37066 0.0
C141 C 0.18834 0.41214 0.45216 0.0
C142 C 0.19827 0.41666 0.47661 0.0
C143 C 0.21536 0.41535 0.47561 0.0
C144 C 0.22562 0.42256 0.49795 0.0
C145 C 0.21865 0.42941 0.52270 0.0
C146 C 0.20138 0.42941 0.52476 0.0
C147 C 0.19118 0.42305 0.50165 0.0
C148 C 0.17403 0.42416 0.50265 0.0
C149 C 0.22226 0.40798 0.45130 0.0
C150 C 0.22903 0.43672 0.54486 0.0
C151 C 0.24288 0.42315 0.49549 0.0
C152 C 0.26538 0.44117 0.48894 0.0
C153 C 0.27426 0.42762 0.49342 0.0
C154 C 0.29165 0.42982 0.49494 0.0
C155 C 0.30012 0.44556 0.49197 0.0
C156 C 0.29123 0.45909 0.48726 0.0
C157 C 0.27384 0.45689 0.48575 0.0
C158 C 0.31750 0.44772 0.49377 0.0
C159 C 0.32630 0.43414 0.49861 0.0
C160 C 0.19431 0.43652 0.54908 0.0
C161 C 0.18420 0.43004 0.59368 0.0
C162 C 0.18076 0.44640 0.59553 0.0
C163 C 0.17018 0.45116 0.61759 0.0
C164 C 0.16305 0.43952 0.63767 0.0
C165 C 0.16654 0.42316 0.63582 0.0
C166 C 0.17712 0.41842 0.61380 0.0
C167 C 0.15236 0.44417 0.65959 0.0
C168 C 0.14520 0.43241 0.67940 0.0
O169 O 0.18968 0.42618 0.43552 0.0
O170 O 0.19393 0.42521 0.57133 0.0
O171 O 0.24835 0.43908 0.48834 0.0
H172 H 0.15201 0.44725 0.32794 0.0
H173 H 0.14006 0.41106 0.33350 0.0
H174 H 0.15261 0.39790 0.37487 0.0
H175 H 0.17144 0.39969 0.41708 0.0
H176 H 0.18410 0.45015 0.40030 0.0
H177 H 0.16530 0.44837 0.35814 0.0
H178 H 0.19279 0.40254 0.44076 0.0
H179 H 0.17611 0.40903 0.45862 0.0
H180 H 0.17142 0.43172 0.51999 0.0
H181 H 0.16773 0.41257 0.50561 0.0
H182 H 0.17027 0.42908 0.48302 0.0
H183 H 0.21420 0.40795 0.43350 0.0
H184 H 0.22407 0.39597 0.45656 0.0
H185 H 0.23359 0.41439 0.44591 0.0
H186 H 0.22189 0.44183 0.56066 0.0
H187 H 0.23729 0.44583 0.53564 0.0
H188 H 0.23562 0.42794 0.55451 0.0
H189 H 0.24795 0.42010 0.51547 0.0
H190 H 0.24607 0.41522 0.47911 0.0
H191 H 0.26796 0.41598 0.49574 0.0
H192 H 0.29825 0.41981 0.49833 0.0
H193 H 0.29751 0.47074 0.48496 0.0
H194 H 0.26722 0.46690 0.48237 0.0
H195 H 0.32384 0.45934 0.49156 0.0
H196 H 0.31993 0.42252 0.50080 0.0
H197 H 0.20128 0.44733 0.55535 0.0
H198 H 0.18228 0.43882 0.54387 0.0
H199 H 0.18595 0.45496 0.58049 0.0
H200 H 0.16759 0.46326 0.61899 0.0
H201 H 0.16124 0.41457 0.65071 0.0
H202 H 0.17964 0.40630 0.61229 0.0
H203 H 0.14974 0.45626 0.66113 0.0
H204 H 0.14785 0.42033 0.67779 0.0
C205 C 0.57463 0.15375 0.32291 0.0
C206 C 0.58890 0.15833 0.33979 0.0
C207 C 0.58798 0.16875 0.36407 0.0
C208 C 0.60217 0.17347 0.38112 0.0
C209 C 0.60114 0.18395 0.40533 0.0
C210 C 0.58594 0.18968 0.41240 0.0
C211 C 0.57176 0.18493 0.39542 0.0
C212 C 0.57279 0.17447 0.37124 0.0
C213 C 0.59899 0.20146 0.45298 0.0
C214 C 0.59442 0.21030 0.47739 0.0
C215 C 0.59574 0.22745 0.47640 0.0
C216 C 0.58843 0.23605 0.49867 0.0
C217 C 0.58150 0.22770 0.52336 0.0
C218 C 0.58151 0.21065 0.52542 0.0
C219 C 0.58795 0.20194 0.50237 0.0
C220 C 0.58682 0.18476 0.50336 0.0
C221 C 0.60320 0.23585 0.45216 0.0
C222 C 0.57410 0.23639 0.54545 0.0
C223 C 0.58784 0.25297 0.49620 0.0
C224 C 0.56959 0.27133 0.48949 0.0
C225 C 0.58331 0.28299 0.49410 0.0
C226 C 0.58108 0.29970 0.49560 0.0
C227 C 0.56514 0.30469 0.49249 0.0
C228 C 0.55143 0.29302 0.48765 0.0
C229 C 0.55366 0.27632 0.48616 0.0
C230 C 0.56295 0.32139 0.49427 0.0
C231 C 0.57670 0.33299 0.49923 0.0
C232 C 0.57431 0.20215 0.54967 0.0
C233 C 0.58087 0.19354 0.59433 0.0
C234 C 0.56430 0.18665 0.59604 0.0
C235 C 0.55949 0.17519 0.61805 0.0
C236 C 0.57128 0.17064 0.63824 0.0
C237 C 0.58784 0.17758 0.63654 0.0
C238 C 0.59264 0.18905 0.61457 0.0
C239 C 0.56657 0.15909 0.66012 0.0
C240 C 0.57848 0.15453 0.68004 0.0
O241 O 0.58478 0.19979 0.43621 0.0
O242 O 0.58576 0.20419 0.57203 0.0
O243 O 0.57171 0.25496 0.48891 0.0
H244 H 0.56345 0.15809 0.32844 0.0
H245 H 0.60010 0.15402 0.33432 0.0
H246 H 0.61342 0.16923 0.37582 0.0
H247 H 0.61161 0.18744 0.41801 0.0
H248 H 0.56051 0.18915 0.40077 0.0
H249 H 0.56231 0.17097 0.35863 0.0
H250 H 0.60871 0.20791 0.44166 0.0
H251 H 0.60215 0.19006 0.45946 0.0
H252 H 0.57917 0.18057 0.52063 0.0
H253 H 0.59856 0.18102 0.50642 0.0
H254 H 0.58185 0.18000 0.48369 0.0
H255 H 0.60324 0.22790 0.43436 0.0
H256 H 0.61536 0.24020 0.45753 0.0
H257 H 0.59671 0.24567 0.44670 0.0
H258 H 0.56893 0.22824 0.56121 0.0
H259 H 0.56487 0.24259 0.53616 0.0
H260 H 0.58299 0.24477 0.55518 0.0
H261 H 0.59092 0.25862 0.51622 0.0
H262 H 0.59587 0.25781 0.47990 0.0
H263 H 0.59509 0.27926 0.49652 0.0
H264 H 0.59121 0.30836 0.49908 0.0
H265 H 0.53964 0.29673 0.48525 0.0
H266 H 0.54352 0.26764 0.48270 0.0
H267 H 0.55117 0.32517 0.49196 0.0
H268 H 0.58846 0.32918 0.50152 0.0
H269 H 0.56335 0.20672 0.55585 0.0
H270 H 0.57198 0.18978 0.54444 0.0
H271 H 0.55564 0.18995 0.58092 0.0
H272 H 0.54723 0.17004 0.61935 0.0
H273 H 0.59654 0.17418 0.65151 0.0
H274 H 0.60491 0.19413 0.61316 0.0
H275 H 0.55432 0.15391 0.66154 0.0
H276 H 0.59071 0.15973 0.67853 0.0
C277 C 0.86805 0.57049 0.67784 0.0
C278 C 0.86342 0.55640 0.66096 0.0
C279 C 0.85286 0.55730 0.63668 0.0
C280 C 0.84809 0.54329 0.61963 0.0
C281 C 0.83748 0.54431 0.59542 0.0
C282 C 0.83167 0.55932 0.58835 0.0
C283 C 0.83648 0.57332 0.60533 0.0
C284 C 0.84707 0.57230 0.62951 0.0
C285 C 0.81974 0.54642 0.54777 0.0
C286 C 0.81079 0.55094 0.52336 0.0
C287 C 0.79342 0.54963 0.52435 0.0
C288 C 0.78471 0.55685 0.50208 0.0
C289 C 0.79316 0.56369 0.47739 0.0
C290 C 0.81044 0.56369 0.47533 0.0
C291 C 0.81926 0.55733 0.49838 0.0
C292 C 0.83665 0.55844 0.49739 0.0
C293 C 0.78492 0.54226 0.54859 0.0
C294 C 0.78437 0.57100 0.45529 0.0
C295 C 0.76758 0.55743 0.50454 0.0
C296 C 0.74898 0.57545 0.51125 0.0
C297 C 0.73717 0.56190 0.50664 0.0
C298 C 0.72026 0.56410 0.50515 0.0
C299 C 0.71519 0.57984 0.50826 0.0
C300 C 0.72702 0.59338 0.51309 0.0
C301 C 0.74393 0.59117 0.51459 0.0
C302 C 0.69828 0.58200 0.50648 0.0
C303 C 0.68654 0.56842 0.50152 0.0
C304 C 0.81904 0.57080 0.45108 0.0
C305 C 0.82776 0.56432 0.40642 0.0
C306 C 0.83474 0.58069 0.40471 0.0
C307 C 0.84634 0.58544 0.38270 0.0
C308 C 0.85095 0.57380 0.36251 0.0
C309 C 0.84393 0.55745 0.36421 0.0
C310 C 0.83232 0.55270 0.38618 0.0
C311 C 0.86265 0.57845 0.34063 0.0
C312 C 0.86727 0.56669 0.32071 0.0
O313 O 0.82143 0.56046 0.56454 0.0
O314 O 0.81698 0.55949 0.42872 0.0
O315 O 0.76556 0.57336 0.51184 0.0
H316 H 0.86366 0.58153 0.67231 0.0
H317 H 0.86779 0.54534 0.66643 0.0
H318 H 0.85239 0.53219 0.62493 0.0
H319 H 0.83395 0.53397 0.58274 0.0
H320 H 0.83220 0.58443 0.59998 0.0
H321 H 0.85062 0.58266 0.64212 0.0
H322 H 0.81321 0.53683 0.55909 0.0
H323 H 0.83129 0.54331 0.54129 0.0
H324 H 0.84089 0.56600 0.48012 0.0
H325 H 0.84044 0.54686 0.49433 0.0
H326 H 0.84147 0.56336 0.51706 0.0
H327 H 0.79297 0.54223 0.56639 0.0
H328 H 0.78052 0.53026 0.54322 0.0
H329 H 0.77497 0.54867 0.55405 0.0
H330 H 0.79262 0.57611 0.43954 0.0
H331 H 0.77808 0.58012 0.46459 0.0
H332 H 0.77588 0.56222 0.44556 0.0
H333 H 0.76186 0.55438 0.48453 0.0
H334 H 0.76268 0.54950 0.52085 0.0
H335 H 0.74095 0.55027 0.50423 0.0
H336 H 0.71149 0.55409 0.50167 0.0
H337 H 0.72325 0.60502 0.51550 0.0
H338 H 0.75272 0.60119 0.51805 0.0
H339 H 0.69446 0.59363 0.50879 0.0
H340 H 0.69040 0.55681 0.49923 0.0
H341 H 0.81442 0.58162 0.44489 0.0
H342 H 0.83157 0.57311 0.45630 0.0
H343 H 0.83140 0.58924 0.41983 0.0
H344 H 0.85156 0.59755 0.38140 0.0
H345 H 0.84737 0.54885 0.34924 0.0
H346 H 0.82718 0.54058 0.38759 0.0
H347 H 0.86789 0.59054 0.33921 0.0
H348 H 0.86201 0.55461 0.32222 0.0
C349 C 0.43740 0.85164 0.67720 0.0
C350 C 0.45167 0.85008 0.66044 0.0
C351 C 0.45075 0.83946 0.63616 0.0
C352 C 0.46494 0.83773 0.61924 0.0
C353 C 0.46391 0.82704 0.59501 0.0
C354 C 0.44871 0.81809 0.58781 0.0
C355 C 0.43453 0.81986 0.60466 0.0
C356 C 0.43556 0.83053 0.62885 0.0
C357 C 0.46176 0.80907 0.54735 0.0
C358 C 0.45718 0.79926 0.52290 0.0
C359 C 0.45851 0.78239 0.52389 0.0
C360 C 0.45120 0.77225 0.50156 0.0
C361 C 0.44427 0.77914 0.47681 0.0
C362 C 0.44428 0.79619 0.47475 0.0
C363 C 0.45072 0.80626 0.49786 0.0
C364 C 0.44959 0.82320 0.49686 0.0
C365 C 0.46597 0.77557 0.54821 0.0
C366 C 0.43687 0.76889 0.45465 0.0
C367 C 0.45061 0.75521 0.50402 0.0
C368 C 0.43236 0.73300 0.51057 0.0
C369 C 0.44607 0.72423 0.50608 0.0
C370 C 0.44385 0.70706 0.50456 0.0
C371 C 0.42790 0.69869 0.50753 0.0
C372 C 0.41420 0.70748 0.51225 0.0
C373 C 0.41643 0.72465 0.51376 0.0
C374 C 0.42571 0.68153 0.50574 0.0
C375 C 0.43947 0.67284 0.50090 0.0
C376 C 0.43708 0.80317 0.45043 0.0
C377 C 0.44364 0.81316 0.40583 0.0
C378 C 0.42707 0.81656 0.40398 0.0
C379 C 0.42226 0.82700 0.38192 0.0
C380 C 0.43404 0.83404 0.36184 0.0
C381 C 0.45060 0.83060 0.36369 0.0
C382 C 0.45541 0.82015 0.38570 0.0
C383 C 0.42934 0.84460 0.33992 0.0
C384 C 0.44125 0.85167 0.32010 0.0
O385 O 0.44755 0.80774 0.56399 0.0
O386 O 0.44853 0.80355 0.42818 0.0
O387 O 0.43448 0.74982 0.51117 0.0
H388 H 0.42622 0.84495 0.67156 0.0
H389 H 0.46287 0.85675 0.66601 0.0
H390 H 0.47619 0.84435 0.62464 0.0
H391 H 0.47438 0.82576 0.58243 0.0
H392 H 0.42328 0.81326 0.59921 0.0
H393 H 0.42508 0.83182 0.64137 0.0
H394 H 0.47148 0.80467 0.55875 0.0
H395 H 0.46492 0.82114 0.54089 0.0
H396 H 0.44194 0.82578 0.47952 0.0
H397 H 0.46133 0.82942 0.49390 0.0
H398 H 0.44462 0.82691 0.51648 0.0
H399 H 0.46601 0.78353 0.56600 0.0
H400 H 0.47813 0.77379 0.54295 0.0
H401 H 0.45948 0.76438 0.55360 0.0
H402 H 0.43170 0.77594 0.43885 0.0
H403 H 0.42763 0.76074 0.46387 0.0
H404 H 0.44576 0.76238 0.44500 0.0
H405 H 0.45369 0.75021 0.48403 0.0
H406 H 0.45864 0.75206 0.52040 0.0
H407 H 0.45786 0.73045 0.50377 0.0
H408 H 0.45398 0.70053 0.50118 0.0
H409 H 0.40241 0.70128 0.51455 0.0
H410 H 0.40629 0.73119 0.51714 0.0
H411 H 0.41394 0.67527 0.50794 0.0
H412 H 0.45123 0.67913 0.49871 0.0
H413 H 0.42612 0.79630 0.44415 0.0
H414 H 0.43474 0.81505 0.45564 0.0
H415 H 0.41841 0.81143 0.41902 0.0
H416 H 0.41000 0.82957 0.38052 0.0
H417 H 0.45931 0.83583 0.34880 0.0
H418 H 0.46768 0.81766 0.38722 0.0
H419 H 0.41709 0.84719 0.33838 0.0
H420 H 0.45348 0.84905 0.32172 0.0
C421 C 0.38817 0.46829 0.52143 0.0
C422 C 0.40207 0.45952 0.52290 0.0
C423 C 0.40836 0.46954 0.49960 0.0
C424 C 0.39435 0.47825 0.49814 0.0
C425 C 0.38235 0.45695 0.49958 0.0
C426 C 0.38863 0.46698 0.47629 0.0
C427 C 0.39637 0.44824 0.50104 0.0
C428 C 0.40253 0.45821 0.47775 0.0
C429 C 0.42463 0.47738 0.49976 0.0
C430 C 0.44090 0.48521 0.49995 0.0
C431 C 0.36611 0.44903 0.49971 0.0
C432 C 0.34988 0.44111 0.49986 0.0
H433 H 0.37878 0.46962 0.53646 0.0
H434 H 0.41115 0.45910 0.53895 0.0
H435 H 0.39811 0.49075 0.49710 0.0
H436 H 0.37955 0.46738 0.46024 0.0
H437 H 0.39260 0.43574 0.50200 0.0
H438 H 0.41193 0.45691 0.46269 0.0
C439 C 0.56241 0.39895 0.49413 0.0
C440 C 0.54895 0.40091 0.47559 0.0
C441 C 0.54130 0.40662 0.50075 0.0
C442 C 0.55482 0.40454 0.51929 0.0
C443 C 0.55393 0.38355 0.50084 0.0
C444 C 0.54629 0.38925 0.52602 0.0
C445 C 0.54041 0.38563 0.48231 0.0
C446 C 0.53283 0.39123 0.50748 0.0
C447 C 0.53343 0.42105 0.50054 0.0
C448 C 0.52556 0.43548 0.50030 0.0
C449 C 0.56184 0.36915 0.50074 0.0
C450 C 0.56975 0.35474 0.50060 0.0
H451 H 0.57476 0.39766 0.48957 0.0
H452 H 0.54769 0.40888 0.45821 0.0
H453 H 0.55760 0.41500 0.53205 0.0
H454 H 0.54754 0.38128 0.54339 0.0
H455 H 0.53760 0.37516 0.46961 0.0
H456 H 0.52048 0.39253 0.51209 0.0
C457 C 0.61686 0.55712 0.49587 0.0
C458 C 0.61170 0.54454 0.47597 0.0
C459 C 0.60480 0.53600 0.50055 0.0
C460 C 0.61008 0.54864 0.52045 0.0
C461 C 0.63080 0.54861 0.50059 0.0
C462 C 0.62391 0.54008 0.52518 0.0
C463 C 0.62552 0.53597 0.48070 0.0
C464 C 0.61874 0.52750 0.50529 0.0
C465 C 0.58854 0.52815 0.50038 0.0
C466 C 0.57227 0.52030 0.50018 0.0
C467 C 0.64704 0.55651 0.50045 0.0
C468 C 0.66328 0.56442 0.50028 0.0
H469 H 0.62066 0.56948 0.49266 0.0
H470 H 0.60304 0.54391 0.45902 0.0
H471 H 0.60031 0.55083 0.53416 0.0
H472 H 0.63257 0.54071 0.54211 0.0
H473 H 0.63529 0.53376 0.46704 0.0
H474 H 0.61493 0.51514 0.50856 0.0
C475 C 0.46054 0.61251 0.52500 0.0
C476 C 0.45519 0.59910 0.50699 0.0
C477 C 0.47203 0.59899 0.49969 0.0
C478 C 0.47733 0.61249 0.51770 0.0
C479 C 0.45941 0.62205 0.49960 0.0
C480 C 0.47625 0.62195 0.49232 0.0
C481 C 0.45411 0.60855 0.48159 0.0
C482 C 0.47090 0.60854 0.47430 0.0
C483 C 0.47985 0.58452 0.49978 0.0
C484 C 0.48764 0.57005 0.49989 0.0
C485 C 0.45143 0.63642 0.49959 0.0
C486 C 0.44345 0.65078 0.49958 0.0
H487 H 0.45483 0.61782 0.54246 0.0
H488 H 0.45010 0.58728 0.51204 0.0
H489 H 0.48750 0.60991 0.53012 0.0
H490 H 0.48133 0.63377 0.48725 0.0
H491 H 0.44397 0.61115 0.46912 0.0
H492 H 0.47665 0.60323 0.45687 0.0
C493 C 0.06534 0.47167 0.89699 0.0
C494 C 0.06392 0.47774 0.86840 0.0
C495 C 0.05275 0.48928 0.86250 0.0
C496 C 0.04298 0.49472 0.88518 0.0
C497 C 0.04438 0.48864 0.91377 0.0
C498 C 0.05556 0.47711 0.91967 0.0
C499 C 0.07366 0.47226 0.84570 0.0
C500 C 0.08338 0.46678 0.82297 0.0
C501 C 0.09308 0.46128 0.80023 0.0
C502 C 0.10275 0.45576 0.77747 0.0
C503 C 0.11240 0.45023 0.75470 0.0
C504 C 0.11076 0.45611 0.72602 0.0
C505 C 0.12036 0.45053 0.70322 0.0
C506 C 0.13162 0.43909 0.70910 0.0
C507 C 0.13328 0.43322 0.73778 0.0
C508 C 0.12367 0.43879 0.76058 0.0
H509 H 0.07361 0.46314 0.90136 0.0
H510 H 0.05172 0.49378 0.84133 0.0
H511 H 0.03471 0.50326 0.88081 0.0
H512 H 0.05661 0.47261 0.94084 0.0
H513 H 0.10241 0.46458 0.72167 0.0
H514 H 0.11913 0.45488 0.68200 0.0
H515 H 0.14163 0.42475 0.74213 0.0
H516 H 0.12490 0.43444 0.78181 0.0
C517 C 0.53119 0.04747 0.86392 0.0
C518 C 0.53261 0.06447 0.86858 0.0
C519 C 0.52833 0.07076 0.89590 0.0
C520 C 0.52261 0.06004 0.91854 0.0
C521 C 0.52118 0.04304 0.91388 0.0
C522 C 0.52548 0.03675 0.88657 0.0
C523 C 0.53828 0.07519 0.84591 0.0
C524 C 0.54393 0.08592 0.82323 0.0
C525 C 0.54956 0.09666 0.80056 0.0
C526 C 0.55515 0.10740 0.77787 0.0
C527 C 0.56073 0.11815 0.75518 0.0
C528 C 0.56186 0.13515 0.75973 0.0
C529 C 0.56738 0.14590 0.73701 0.0
C530 C 0.57177 0.13965 0.70974 0.0
C531 C 0.57066 0.12264 0.70519 0.0
C532 C 0.56514 0.11189 0.72791 0.0
H533 H 0.53437 0.04281 0.84371 0.0
H534 H 0.52939 0.08335 0.89935 0.0
H535 H 0.51944 0.06470 0.93876 0.0
H536 H 0.52443 0.02416 0.88312 0.0
H537 H 0.55860 0.13978 0.77992 0.0
H538 H 0.56820 0.15849 0.74037 0.0
H539 H 0.57392 0.11801 0.68501 0.0
H540 H 0.56431 0.09930 0.72455 0.0
C541 C 0.95212 0.51133 0.13028 0.0
C542 C 0.94923 0.52788 0.13170 0.0
C543 C 0.95611 0.53895 0.11046 0.0
C544 C 0.96589 0.53349 0.08781 0.0
C545 C 0.96878 0.51694 0.08639 0.0
C546 C 0.96189 0.50586 0.10762 0.0
C547 C 0.93950 0.53335 0.15441 0.0
C548 C 0.92977 0.53885 0.17712 0.0
C549 C 0.92008 0.54435 0.19986 0.0
C550 C 0.91041 0.54987 0.22262 0.0
C551 C 0.90075 0.55540 0.24539 0.0
C552 C 0.89813 0.57201 0.24706 0.0
C553 C 0.88853 0.57755 0.26990 0.0
C554 C 0.88154 0.56648 0.29106 0.0
C555 C 0.88414 0.54987 0.28937 0.0
C556 C 0.89375 0.54433 0.26653 0.0
H557 H 0.94701 0.50313 0.14599 0.0
H558 H 0.95397 0.55120 0.11151 0.0
H559 H 0.97099 0.54169 0.07209 0.0
H560 H 0.96403 0.49361 0.10656 0.0
H561 H 0.90331 0.58020 0.23140 0.0
H562 H 0.88660 0.58985 0.27115 0.0
H563 H 0.87896 0.54167 0.30502 0.0
H564 H 0.89568 0.53203 0.26529 0.0
C565 C 0.48384 0.95792 0.13718 0.0
C566 C 0.48111 0.94100 0.13183 0.0
C567 C 0.48394 0.93480 0.10373 0.0
C568 C 0.48947 0.94552 0.08099 0.0
C569 C 0.49219 0.96245 0.08633 0.0
C570 C 0.48937 0.96865 0.11444 0.0
C571 C 0.47554 0.93027 0.15455 0.0
C572 C 0.46994 0.91954 0.17726 0.0
C573 C 0.46431 0.90881 0.19994 0.0
C574 C 0.45866 0.89807 0.22260 0.0
C575 C 0.45299 0.88733 0.24525 0.0
C576 C 0.45000 0.87044 0.23970 0.0
C577 C 0.44427 0.85971 0.26231 0.0
C578 C 0.44154 0.86586 0.29047 0.0
C579 C 0.44455 0.88275 0.29603 0.0
C580 C 0.45028 0.89349 0.27342 0.0
H581 H 0.48176 0.96251 0.15798 0.0
H582 H 0.48193 0.92226 0.09978 0.0
H583 H 0.49156 0.94093 0.06019 0.0
H584 H 0.49139 0.98118 0.11840 0.0
H585 H 0.45201 0.86589 0.21884 0.0
H586 H 0.44204 0.84721 0.25819 0.0
H587 H 0.44254 0.88731 0.31688 0.0
H588 H 0.45250 0.90599 0.27753 0.0
C589 C 0.53998 0.05007 0.12715 0.0
C590 C 0.53223 0.06431 0.13228 0.0
C591 C 0.51890 0.06785 0.11451 0.0
C592 C 0.51333 0.05716 0.09160 0.0
C593 C 0.52108 0.04293 0.08646 0.0
C594 C 0.53441 0.03938 0.10424 0.0
C595 C 0.53783 0.07502 0.15514 0.0
C596 C 0.54344 0.08575 0.17797 0.0
C597 C 0.54906 0.09650 0.20077 0.0
C598 C 0.55469 0.10726 0.22353 0.0
C599 C 0.56033 0.11804 0.24627 0.0
C600 C 0.55275 0.13242 0.25102 0.0
C601 C 0.55843 0.14323 0.27368 0.0
C602 C 0.57169 0.13966 0.29161 0.0
C603 C 0.57926 0.12528 0.28688 0.0
C604 C 0.57358 0.11447 0.26421 0.0
H605 H 0.54984 0.04744 0.14032 0.0
H606 H 0.51316 0.07839 0.11831 0.0
H607 H 0.50346 0.05979 0.07844 0.0
H608 H 0.54014 0.02884 0.10045 0.0
H609 H 0.54294 0.13506 0.23773 0.0
H610 H 0.55282 0.15388 0.27718 0.0
H611 H 0.58906 0.12264 0.30017 0.0
H612 H 0.57919 0.10382 0.26071 0.0
C613 C 0.06638 0.49400 0.12225 0.0
C614 C 0.06386 0.47760 0.13142 0.0
C615 C 0.05158 0.46672 0.11794 0.0
C616 C 0.04179 0.47224 0.09531 0.0
C617 C 0.04430 0.48863 0.08615 0.0
C618 C 0.05660 0.49951 0.09961 0.0
C619 C 0.07361 0.47210 0.15411 0.0
C620 C 0.08335 0.46659 0.17683 0.0
C621 C 0.09305 0.46107 0.19957 0.0
C622 C 0.10274 0.45556 0.22235 0.0
C623 C 0.11241 0.45005 0.24515 0.0
C624 C 0.10967 0.43372 0.25463 0.0
C625 C 0.11930 0.42822 0.27750 0.0
C626 C 0.13167 0.43905 0.29089 0.0
C627 C 0.13442 0.45537 0.28139 0.0
C628 C 0.12479 0.46087 0.25852 0.0
H629 H 0.07548 0.50205 0.13221 0.0
H630 H 0.04972 0.45458 0.12472 0.0
H631 H 0.03269 0.46418 0.08533 0.0
H632 H 0.05846 0.51165 0.09282 0.0
H633 H 0.10051 0.42571 0.24472 0.0
H634 H 0.11726 0.41614 0.28453 0.0
H635 H 0.14359 0.46338 0.29129 0.0
H636 H 0.12683 0.47296 0.25149 0.0
C637 C 0.95094 0.51110 0.87151 0.0
C638 C 0.94968 0.52792 0.86815 0.0
C639 C 0.95806 0.53924 0.88764 0.0
C640 C 0.96769 0.53374 0.91051 0.0
C641 C 0.96895 0.51693 0.91388 0.0
C642 C 0.96058 0.50560 0.89438 0.0
C643 C 0.94001 0.53341 0.84534 0.0
C644 C 0.93032 0.53892 0.82255 0.0
C645 C 0.92062 0.54443 0.79979 0.0
C646 C 0.91089 0.54994 0.77707 0.0
C647 C 0.90115 0.55546 0.75438 0.0
C648 C 0.89967 0.57226 0.75139 0.0
C649 C 0.88988 0.57778 0.72876 0.0
C650 C 0.88158 0.56650 0.70912 0.0
C651 C 0.88308 0.54969 0.71209 0.0
C652 C 0.89286 0.54418 0.73472 0.0
H653 H 0.94475 0.50272 0.85707 0.0
H654 H 0.95712 0.55169 0.88514 0.0
H655 H 0.97389 0.54213 0.92494 0.0
H656 H 0.96152 0.49315 0.89687 0.0
H657 H 0.90581 0.58062 0.76594 0.0
H658 H 0.88878 0.59022 0.72656 0.0
H659 H 0.87694 0.54134 0.69754 0.0
H660 H 0.89397 0.53174 0.73693 0.0
C661 C 0.48477 0.93477 0.89580 0.0
C662 C 0.48114 0.94099 0.86810 0.0
C663 C 0.48306 0.95797 0.86321 0.0
C664 C 0.48860 0.96873 0.88604 0.0
C665 C 0.49222 0.96252 0.91374 0.0
C666 C 0.49031 0.94554 0.91862 0.0
C667 C 0.47556 0.93023 0.84530 0.0
C668 C 0.46996 0.91947 0.82250 0.0
C669 C 0.46433 0.90873 0.79970 0.0
C670 C 0.45867 0.89799 0.77691 0.0
C671 C 0.45300 0.88726 0.75412 0.0
C672 C 0.44910 0.89352 0.72659 0.0
C673 C 0.44337 0.88280 0.70384 0.0
C674 C 0.44154 0.86581 0.70860 0.0
C675 C 0.44546 0.85954 0.73612 0.0
C676 C 0.45119 0.87027 0.75888 0.0
H677 H 0.48336 0.92221 0.89942 0.0
H678 H 0.48038 0.96257 0.84270 0.0
H679 H 0.49002 0.98130 0.88242 0.0
H680 H 0.49300 0.94094 0.93913 0.0
H681 H 0.45045 0.90610 0.72307 0.0
H682 H 0.44047 0.88743 0.68347 0.0
H683 H 0.44412 0.84697 0.73964 0.0
H684 H 0.45409 0.86563 0.77926 0.0
