data_{}
_symmetry_space_group_name_H-M    P1
_symmetry_Int_Tables_number       1
_symmetry_cell_setting            triclinic
loop_
_symmetry_equiv_pos_as_xyz
'x, y, z'
_cell_length_a     94.873
_cell_length_b     94.899
_cell_length_c     49.945
_cell_angle_alpha  90.141
_cell_angle_beta   90.141
_cell_angle_gamma  97.859
loop_
_atom_site_label
_atom_site_type_symbol
_atom_site_fract_x
_atom_site_fract_y
_atom_site_fract_z
_atom_type_partial_charge
H0 H 0.97446 0.47553 0.96082 0.0
H1 H 0.02375 0.48464 0.95068 0.0
H2 H 0.02221 0.48453 0.98194 0.0
H3 H 0.00576 0.49920 0.94660 0.0
H4 H 0.00474 0.50042 0.97791 0.0
H5 H 0.99841 0.47440 0.94966 0.0
H6 H 0.99697 0.47590 0.98079 0.0
H7 H 0.98194 0.50191 0.98295 0.0
H8 H 0.96623 0.49485 0.97764 0.0
H9 H 0.02238 0.51688 0.98901 0.0
H10 H 0.03894 0.52073 0.99100 0.0
H11 H 0.02405 0.51439 0.93917 0.0
H12 H 0.03991 0.52060 0.94532 0.0
H13 H 0.98576 0.48724 0.92055 0.0
H14 H 0.98045 0.50041 0.93447 0.0
H15 H 0.03233 0.52288 0.03947 0.0
H16 H 0.98304 0.51376 0.04962 0.0
H17 H 0.98458 0.51387 0.01835 0.0
H18 H 0.00103 0.49920 0.05370 0.0
H19 H 0.00205 0.49798 0.02238 0.0
H20 H 0.00838 0.52401 0.05063 0.0
H21 H 0.00982 0.52250 0.01951 0.0
H22 H 0.02486 0.49649 0.01735 0.0
H23 H 0.04056 0.50356 0.02265 0.0
H24 H 0.98441 0.48152 0.01128 0.0
H25 H 0.96785 0.47767 0.00930 0.0
H26 H 0.98274 0.48401 0.06112 0.0
H27 H 0.96688 0.47780 0.05497 0.0
H28 H 0.02103 0.51116 0.07975 0.0
H29 H 0.02634 0.49799 0.06582 0.0
C30 C 0.02172 0.49031 0.96602 0.0
C31 C 0.00666 0.49420 0.96331 0.0
C32 C 0.99612 0.48069 0.96384 0.0
C33 C 0.97575 0.49291 0.98203 0.0
C34 C 0.03121 0.51292 0.99119 0.0
C35 C 0.03344 0.51187 0.94279 0.0
C36 C 0.97888 0.49011 0.93308 0.0
C37 C 0.98507 0.50809 0.03428 0.0
C38 C 0.00010 0.50420 0.03698 0.0
C39 C 0.01067 0.51771 0.03645 0.0
C40 C 0.03104 0.50549 0.01826 0.0
C41 C 0.97558 0.48549 0.00910 0.0
C42 C 0.97335 0.48654 0.05750 0.0
C43 C 0.02791 0.50830 0.06722 0.0
N44 N 0.03292 0.50330 0.96797 0.0
N45 N 0.98098 0.48362 0.96031 0.0
N46 N 0.97387 0.49511 0.03233 0.0
N47 N 0.02581 0.51479 0.03998 0.0
H48 H 0.50053 0.96786 0.96091 0.0
H49 H 0.52333 0.01431 0.95081 0.0
H50 H 0.52247 0.01293 0.98208 0.0
H51 H 0.49942 0.00425 0.94659 0.0
H52 H 0.49772 0.00384 0.97790 0.0
H53 H 0.51645 0.98829 0.94981 0.0
H54 H 0.51424 0.98761 0.98092 0.0
H55 H 0.48219 0.98454 0.98286 0.0
H56 H 0.47855 0.96814 0.97757 0.0
H57 H 0.49438 0.02555 0.98892 0.0
H58 H 0.50135 0.04146 0.99092 0.0
H59 H 0.49759 0.02605 0.93910 0.0
H60 H 0.50207 0.04226 0.94525 0.0
H61 H 0.49737 0.98222 0.92058 0.0
H62 H 0.48257 0.98267 0.93440 0.0
H63 H 0.49536 0.03653 0.03936 0.0
H64 H 0.47255 0.99008 0.04946 0.0
H65 H 0.47341 0.99146 0.01819 0.0
H66 H 0.49647 0.00010 0.05368 0.0
H67 H 0.49817 0.00010 0.02237 0.0
H68 H 0.47943 0.01610 0.05046 0.0
H69 H 0.48164 0.01677 0.01935 0.0
H70 H 0.51369 0.01985 0.01741 0.0
H71 H 0.51733 0.03625 0.02270 0.0
H72 H 0.50151 0.97884 0.01135 0.0
H73 H 0.49453 0.96293 0.00935 0.0
H74 H 0.49830 0.97834 0.06117 0.0
H75 H 0.49381 0.96213 0.05502 0.0
H76 H 0.49852 0.02217 0.07969 0.0
H77 H 0.51331 0.02172 0.06587 0.0
C78 C 0.51712 0.01473 0.96611 0.0
C79 C 0.50434 0.00311 0.96334 0.0
C80 C 0.50953 0.98872 0.96394 0.0
C81 C 0.48618 0.97568 0.98200 0.0
C82 C 0.50335 0.03172 0.99115 0.0
C83 C 0.50565 0.03326 0.94276 0.0
C84 C 0.49058 0.97733 0.93307 0.0
C85 C 0.47876 0.98966 0.03416 0.0
C86 C 0.49155 0.00128 0.03693 0.0
C87 C 0.48635 0.01567 0.03633 0.0
C88 C 0.50971 0.02871 0.01827 0.0
C89 C 0.49254 0.97267 0.00912 0.0
C90 C 0.49023 0.97113 0.05751 0.0
C91 C 0.50531 0.02706 0.06720 0.0
N92 N 0.51279 0.02949 0.96800 0.0
N93 N 0.49754 0.97665 0.96036 0.0
N94 N 0.48309 0.97489 0.03227 0.0
N95 N 0.49835 0.02774 0.03991 0.0
C96 C 0.50864 0.49839 0.49044 0.0
C97 C 0.49996 0.50819 0.49053 0.0
C98 C 0.51925 0.47440 0.49239 0.0
C99 C 0.53046 0.48467 0.49409 0.0
C100 C 0.48852 0.53184 0.49409 0.0
C101 C 0.47757 0.52128 0.49421 0.0
C102 C 0.51602 0.42921 0.49418 0.0
C103 C 0.52436 0.43730 0.51322 0.0
C104 C 0.51090 0.45068 0.47331 0.0
C105 C 0.51896 0.45875 0.49263 0.0
C106 C 0.52579 0.45192 0.51254 0.0
C107 C 0.50964 0.43595 0.47397 0.0
C108 C 0.57409 0.47934 0.50403 0.0
C109 C 0.56574 0.47089 0.48581 0.0
C110 C 0.55150 0.47253 0.48241 0.0
C111 C 0.54561 0.48279 0.49736 0.0
C112 C 0.55408 0.49120 0.51579 0.0
C113 C 0.56826 0.48956 0.51903 0.0
C114 C 0.48800 0.57699 0.49507 0.0
C115 C 0.47867 0.56817 0.51106 0.0
C116 C 0.47878 0.55358 0.51107 0.0
C117 C 0.48824 0.54744 0.49483 0.0
C118 C 0.49781 0.55639 0.47913 0.0
C119 C 0.49767 0.57090 0.47913 0.0
C120 C 0.43304 0.52291 0.50297 0.0
C121 C 0.43989 0.51361 0.51791 0.0
C122 C 0.45431 0.51309 0.51490 0.0
C123 C 0.46208 0.52217 0.49706 0.0
C124 C 0.45529 0.53135 0.48158 0.0
C125 C 0.44085 0.53166 0.48481 0.0
S126 S 0.50245 0.48011 0.48835 0.0
S127 S 0.52721 0.50249 0.49194 0.0
S128 S 0.50572 0.52665 0.49098 0.0
S129 S 0.48135 0.50386 0.48979 0.0
H130 H 0.52909 0.43268 0.52673 0.0
H131 H 0.50627 0.45526 0.45963 0.0
H132 H 0.53142 0.45738 0.52566 0.0
H133 H 0.50434 0.43049 0.46045 0.0
H134 H 0.56974 0.46397 0.47563 0.0
H135 H 0.54575 0.46669 0.46997 0.0
H136 H 0.55011 0.49807 0.52616 0.0
H137 H 0.57402 0.49537 0.53147 0.0
H138 H 0.47212 0.57219 0.52214 0.0
H139 H 0.47237 0.54770 0.52221 0.0
H140 H 0.50453 0.55242 0.46834 0.0
H141 H 0.50419 0.57680 0.46819 0.0
H142 H 0.43460 0.50749 0.53041 0.0
H143 H 0.45881 0.50654 0.52503 0.0
H144 H 0.46051 0.53737 0.46887 0.0
H145 H 0.43621 0.53802 0.47429 0.0
C146 C 0.14810 0.56684 0.32310 0.0
C147 C 0.14925 0.55343 0.33985 0.0
C148 C 0.15936 0.55435 0.36414 0.0
C149 C 0.16066 0.54103 0.38105 0.0
C150 C 0.17084 0.54205 0.40528 0.0
C151 C 0.17969 0.55638 0.41249 0.0
C152 C 0.17835 0.56969 0.39564 0.0
C153 C 0.16819 0.56867 0.37145 0.0
C154 C 0.18796 0.54415 0.45294 0.0
C155 C 0.19738 0.54850 0.47739 0.0
C156 C 0.21337 0.54734 0.47640 0.0
C157 C 0.22317 0.55426 0.49874 0.0
C158 C 0.21680 0.56074 0.52349 0.0
C159 C 0.20060 0.56065 0.52555 0.0
C160 C 0.19089 0.55454 0.50243 0.0
C161 C 0.17483 0.55552 0.50343 0.0
C162 C 0.21967 0.54036 0.45209 0.0
C163 C 0.22670 0.56775 0.54566 0.0
C164 C 0.23937 0.55490 0.49628 0.0
C165 C 0.26089 0.57216 0.48975 0.0
C166 C 0.26890 0.55931 0.49423 0.0
C167 C 0.28526 0.56149 0.49575 0.0
C168 C 0.29357 0.57651 0.49279 0.0
C169 C 0.28555 0.58935 0.48808 0.0
C170 C 0.26919 0.58717 0.48656 0.0
C171 C 0.30992 0.57866 0.49459 0.0
C172 C 0.31785 0.56578 0.49942 0.0
C173 C 0.19414 0.56738 0.54987 0.0
C174 C 0.18451 0.56116 0.59446 0.0
C175 C 0.18167 0.57672 0.59632 0.0
C176 C 0.17187 0.58119 0.61838 0.0
C177 C 0.16491 0.57008 0.63845 0.0
C178 C 0.16779 0.55453 0.63660 0.0
C179 C 0.17760 0.55007 0.61458 0.0
C180 C 0.15500 0.57445 0.66037 0.0
C181 C 0.14800 0.56322 0.68018 0.0
O182 O 0.18955 0.55752 0.43631 0.0
O183 O 0.19352 0.55662 0.57211 0.0
O184 O 0.24487 0.57009 0.48914 0.0
H185 H 0.15472 0.57738 0.32874 0.0
H186 H 0.14265 0.54288 0.33427 0.0
H187 H 0.15411 0.53042 0.37564 0.0
H188 H 0.17181 0.53221 0.41785 0.0
H189 H 0.18488 0.58030 0.40110 0.0
H190 H 0.16721 0.57852 0.35894 0.0
H191 H 0.19190 0.53504 0.44154 0.0
H192 H 0.17642 0.54113 0.45940 0.0
H193 H 0.17257 0.56270 0.52078 0.0
H194 H 0.16865 0.54446 0.50639 0.0
H195 H 0.17142 0.56018 0.48381 0.0
H196 H 0.21211 0.54029 0.43429 0.0
H197 H 0.22107 0.52895 0.45734 0.0
H198 H 0.23045 0.54652 0.44670 0.0
H199 H 0.22013 0.57257 0.56146 0.0
H200 H 0.23467 0.57646 0.53645 0.0
H201 H 0.23268 0.55943 0.55530 0.0
H202 H 0.24405 0.55203 0.51627 0.0
H203 H 0.24217 0.54737 0.47990 0.0
H204 H 0.26271 0.54821 0.49653 0.0
H205 H 0.29121 0.55200 0.49913 0.0
H206 H 0.29172 0.60046 0.48579 0.0
H207 H 0.26322 0.59666 0.48319 0.0
H208 H 0.31614 0.58975 0.49239 0.0
H209 H 0.31160 0.55469 0.50160 0.0
H210 H 0.20094 0.57771 0.55615 0.0
H211 H 0.18292 0.56951 0.54466 0.0
H212 H 0.18674 0.58488 0.58129 0.0
H213 H 0.16972 0.59270 0.61979 0.0
H214 H 0.16262 0.54633 0.65148 0.0
H215 H 0.17967 0.53855 0.61306 0.0
H216 H 0.15282 0.58595 0.66192 0.0
H217 H 0.15020 0.55174 0.67856 0.0
C218 C 0.56474 0.14657 0.32308 0.0
C219 C 0.57819 0.15120 0.33998 0.0
C220 C 0.57742 0.16109 0.36426 0.0
C221 C 0.59079 0.16585 0.38131 0.0
C222 C 0.58991 0.17578 0.40552 0.0
C223 C 0.57568 0.18093 0.41258 0.0
C224 C 0.56232 0.17613 0.39560 0.0
C225 C 0.56319 0.16622 0.37142 0.0
C226 C 0.58805 0.19238 0.45317 0.0
C227 C 0.58382 0.20069 0.47757 0.0
C228 C 0.58522 0.21701 0.47660 0.0
C229 C 0.57843 0.22503 0.49886 0.0
C230 C 0.57184 0.21696 0.52354 0.0
C231 C 0.57170 0.20076 0.52560 0.0
C232 C 0.57768 0.19262 0.50255 0.0
C233 C 0.57647 0.17628 0.50354 0.0
C234 C 0.59230 0.22513 0.45235 0.0
C235 C 0.56496 0.22506 0.54563 0.0
C236 C 0.57802 0.24109 0.49640 0.0
C237 C 0.56103 0.25816 0.48968 0.0
C238 C 0.57402 0.26951 0.49430 0.0
C239 C 0.57207 0.28533 0.49580 0.0
C240 C 0.55713 0.28976 0.49268 0.0
C241 C 0.54416 0.27840 0.48784 0.0
C242 C 0.54611 0.26258 0.48634 0.0
C243 C 0.55522 0.30558 0.49446 0.0
C244 C 0.56824 0.31687 0.49943 0.0
C245 C 0.56486 0.19255 0.54985 0.0
C246 C 0.57095 0.18451 0.59451 0.0
C247 C 0.55532 0.17763 0.59620 0.0
C248 C 0.55070 0.16665 0.61821 0.0
C249 C 0.56174 0.16257 0.63840 0.0
C250 C 0.57736 0.16949 0.63671 0.0
C251 C 0.58197 0.18047 0.61474 0.0
C252 C 0.55721 0.15150 0.66028 0.0
C253 C 0.56836 0.14741 0.68020 0.0
O254 O 0.57468 0.19051 0.43639 0.0
O255 O 0.57564 0.19471 0.57221 0.0
O256 O 0.56288 0.24265 0.48910 0.0
H257 H 0.55428 0.15047 0.32862 0.0
H258 H 0.58868 0.14733 0.33451 0.0
H259 H 0.60132 0.16204 0.37601 0.0
H260 H 0.59978 0.17931 0.41820 0.0
H261 H 0.55178 0.17992 0.40094 0.0
H262 H 0.55331 0.16268 0.35880 0.0
H263 H 0.59724 0.19870 0.44186 0.0
H264 H 0.59091 0.18161 0.45965 0.0
H265 H 0.56924 0.17215 0.52081 0.0
H266 H 0.58746 0.17296 0.50661 0.0
H267 H 0.57175 0.17166 0.48387 0.0
H268 H 0.59227 0.21757 0.43456 0.0
H269 H 0.60376 0.22950 0.45773 0.0
H270 H 0.58628 0.23432 0.44690 0.0
H271 H 0.56003 0.21723 0.56138 0.0
H272 H 0.55634 0.23078 0.53633 0.0
H273 H 0.57339 0.23321 0.55537 0.0
H274 H 0.58096 0.24652 0.51641 0.0
H275 H 0.58560 0.24584 0.48010 0.0
H276 H 0.58506 0.26620 0.49672 0.0
H277 H 0.58167 0.29376 0.49928 0.0
H278 H 0.53311 0.28169 0.48543 0.0
H279 H 0.53651 0.25414 0.48287 0.0
H280 H 0.54419 0.30893 0.49214 0.0
H281 H 0.57926 0.31349 0.50173 0.0
H282 H 0.55461 0.19667 0.55602 0.0
H283 H 0.56256 0.18075 0.54462 0.0
H284 H 0.54721 0.18059 0.58108 0.0
H285 H 0.53914 0.16152 0.61950 0.0
H286 H 0.58550 0.16644 0.65168 0.0
H287 H 0.59354 0.18554 0.61334 0.0
H288 H 0.54566 0.14634 0.66170 0.0
H289 H 0.57990 0.15259 0.67870 0.0
C290 C 0.85845 0.43316 0.67720 0.0
C291 C 0.85364 0.41976 0.66030 0.0
C292 C 0.84378 0.42067 0.63603 0.0
C293 C 0.83883 0.40735 0.61897 0.0
C294 C 0.82893 0.40837 0.59476 0.0
C295 C 0.82399 0.42270 0.58770 0.0
C296 C 0.82898 0.43601 0.60469 0.0
C297 C 0.83886 0.43499 0.62887 0.0
C298 C 0.81239 0.41047 0.54712 0.0
C299 C 0.80415 0.41482 0.52271 0.0
C300 C 0.78785 0.41366 0.52369 0.0
C301 C 0.77994 0.42058 0.50143 0.0
C302 C 0.78808 0.42706 0.47675 0.0
C303 C 0.80425 0.42697 0.47469 0.0
C304 C 0.81230 0.42086 0.49774 0.0
C305 C 0.82862 0.42184 0.49675 0.0
C306 C 0.77964 0.40668 0.54793 0.0
C307 C 0.78009 0.43406 0.45466 0.0
C308 C 0.76391 0.42122 0.50389 0.0
C309 C 0.74711 0.43848 0.51061 0.0
C310 C 0.73559 0.42563 0.50600 0.0
C311 C 0.71983 0.42781 0.50450 0.0
C312 C 0.71562 0.44283 0.50762 0.0
C313 C 0.72715 0.45567 0.51246 0.0
C314 C 0.74291 0.45349 0.51396 0.0
C315 C 0.69986 0.44497 0.50584 0.0
C316 C 0.68840 0.43209 0.50087 0.0
C317 C 0.81255 0.43370 0.45044 0.0
C318 C 0.82049 0.42748 0.40578 0.0
C319 C 0.82758 0.44304 0.40408 0.0
C320 C 0.83860 0.44751 0.38207 0.0
C321 C 0.84252 0.43640 0.36188 0.0
C322 C 0.83539 0.42085 0.36357 0.0
C323 C 0.82436 0.41639 0.38554 0.0
C324 C 0.85363 0.44077 0.34001 0.0
C325 C 0.85756 0.42954 0.32008 0.0
O326 O 0.81445 0.42384 0.56389 0.0
O327 O 0.81023 0.42294 0.42808 0.0
O328 O 0.76257 0.43640 0.51120 0.0
H329 H 0.85471 0.44370 0.67167 0.0
H330 H 0.85735 0.40920 0.66577 0.0
H331 H 0.84248 0.39675 0.62427 0.0
H332 H 0.82527 0.39853 0.58208 0.0
H333 H 0.82535 0.44662 0.59934 0.0
H334 H 0.84253 0.44484 0.64149 0.0
H335 H 0.80595 0.40136 0.55843 0.0
H336 H 0.82310 0.40745 0.54063 0.0
H337 H 0.83285 0.42902 0.47948 0.0
H338 H 0.83178 0.41078 0.49368 0.0
H339 H 0.83331 0.42650 0.51642 0.0
H340 H 0.78718 0.40661 0.56573 0.0
H341 H 0.77511 0.39526 0.54256 0.0
H342 H 0.77055 0.41284 0.55339 0.0
H343 H 0.78799 0.43889 0.43891 0.0
H344 H 0.77451 0.44278 0.46396 0.0
H345 H 0.77184 0.42574 0.44492 0.0
H346 H 0.75845 0.41835 0.48388 0.0
H347 H 0.75906 0.41369 0.52019 0.0
H348 H 0.73874 0.41453 0.50357 0.0
H349 H 0.71128 0.41832 0.50102 0.0
H350 H 0.72402 0.46678 0.51487 0.0
H351 H 0.75148 0.46298 0.51743 0.0
H352 H 0.69667 0.45607 0.50816 0.0
H353 H 0.69162 0.42101 0.49857 0.0
H354 H 0.80859 0.44403 0.44426 0.0
H355 H 0.82436 0.43583 0.45567 0.0
H356 H 0.82474 0.45120 0.41921 0.0
H357 H 0.84390 0.45902 0.38078 0.0
H358 H 0.83832 0.41265 0.34860 0.0
H359 H 0.81914 0.40487 0.38694 0.0
H360 H 0.85895 0.45227 0.33859 0.0
H361 H 0.85222 0.41806 0.32158 0.0
C362 C 0.43100 0.85697 0.67718 0.0
C363 C 0.44445 0.85602 0.66043 0.0
C364 C 0.44368 0.84592 0.63614 0.0
C365 C 0.45705 0.84481 0.61923 0.0
C366 C 0.45617 0.83464 0.59501 0.0
C367 C 0.44194 0.82560 0.58780 0.0
C368 C 0.42858 0.82675 0.60464 0.0
C369 C 0.42945 0.83690 0.62883 0.0
C370 C 0.45431 0.81753 0.54734 0.0
C371 C 0.45008 0.80806 0.52289 0.0
C372 C 0.45148 0.79213 0.52389 0.0
C373 C 0.44469 0.78225 0.50155 0.0
C374 C 0.43810 0.78852 0.47680 0.0
C375 C 0.43796 0.80468 0.47474 0.0
C376 C 0.44394 0.81446 0.49785 0.0
C377 C 0.44273 0.83046 0.49685 0.0
C378 C 0.45856 0.78595 0.54820 0.0
C379 C 0.43122 0.77853 0.45463 0.0
C380 C 0.44428 0.76608 0.50401 0.0
C381 C 0.42729 0.74436 0.51055 0.0
C382 C 0.44028 0.73656 0.50607 0.0
C383 C 0.43833 0.72021 0.50455 0.0
C384 C 0.42339 0.71170 0.50751 0.0
C385 C 0.41041 0.71951 0.51221 0.0
C386 C 0.41237 0.73586 0.51373 0.0
C387 C 0.42148 0.69535 0.50571 0.0
C388 C 0.43450 0.68762 0.50088 0.0
C389 C 0.43112 0.81102 0.45042 0.0
C390 C 0.43721 0.82073 0.40582 0.0
C391 C 0.42158 0.82333 0.40396 0.0
C392 C 0.41696 0.83304 0.38190 0.0
C393 C 0.42800 0.84015 0.36183 0.0
C394 C 0.44362 0.83750 0.36369 0.0
C395 C 0.44823 0.82777 0.38570 0.0
C396 C 0.42348 0.84998 0.33991 0.0
C397 C 0.43463 0.85712 0.32010 0.0
O398 O 0.44094 0.81575 0.56398 0.0
O399 O 0.44190 0.81180 0.42817 0.0
O400 O 0.42914 0.76038 0.51115 0.0
H401 H 0.42054 0.85021 0.67154 0.0
H402 H 0.45494 0.86275 0.66601 0.0
H403 H 0.46758 0.85149 0.62464 0.0
H404 H 0.46604 0.83381 0.58243 0.0
H405 H 0.41804 0.82008 0.59918 0.0
H406 H 0.41957 0.83773 0.64134 0.0
H407 H 0.46350 0.81372 0.55875 0.0
H408 H 0.45717 0.82908 0.54089 0.0
H409 H 0.43550 0.83262 0.47950 0.0
H410 H 0.45373 0.83679 0.49390 0.0
H411 H 0.43801 0.83380 0.51647 0.0
H412 H 0.45853 0.79349 0.56600 0.0
H413 H 0.47002 0.78471 0.54295 0.0
H414 H 0.45254 0.77510 0.55360 0.0
H415 H 0.42629 0.78502 0.43883 0.0
H416 H 0.42260 0.77046 0.46384 0.0
H417 H 0.43964 0.77269 0.44499 0.0
H418 H 0.44722 0.76146 0.48403 0.0
H419 H 0.45186 0.76340 0.52039 0.0
H420 H 0.45132 0.74289 0.50376 0.0
H421 H 0.44793 0.71440 0.50117 0.0
H422 H 0.39937 0.71320 0.51450 0.0
H423 H 0.40277 0.74168 0.51710 0.0
H424 H 0.41045 0.68899 0.50791 0.0
H425 H 0.44552 0.69402 0.49870 0.0
H426 H 0.42087 0.80410 0.44413 0.0
H427 H 0.42882 0.82219 0.45562 0.0
H428 H 0.41347 0.81815 0.41900 0.0
H429 H 0.40540 0.83502 0.38049 0.0
H430 H 0.45177 0.84278 0.34880 0.0
H431 H 0.45980 0.82587 0.38723 0.0
H432 H 0.41192 0.85198 0.33836 0.0
H433 H 0.44617 0.85509 0.32172 0.0
C434 C 0.37995 0.55599 0.51482 0.0
C435 C 0.38064 0.54174 0.52898 0.0
C436 C 0.38796 0.53739 0.50327 0.0
C437 C 0.38717 0.55170 0.48911 0.0
C438 C 0.36602 0.54859 0.50216 0.0
C439 C 0.37334 0.54426 0.47644 0.0
C440 C 0.36681 0.53428 0.51632 0.0
C441 C 0.37403 0.53000 0.49060 0.0
C442 C 0.40168 0.53040 0.50413 0.0
C443 C 0.41539 0.52341 0.50502 0.0
C444 C 0.35230 0.55559 0.50162 0.0
C445 C 0.33858 0.56258 0.50112 0.0
H446 H 0.37825 0.56686 0.52295 0.0
H447 H 0.38691 0.53894 0.54726 0.0
H448 H 0.39794 0.55576 0.47989 0.0
H449 H 0.36705 0.54705 0.45817 0.0
H450 H 0.35603 0.53020 0.52546 0.0
H451 H 0.37576 0.51915 0.48242 0.0
C452 C 0.55559 0.37836 0.48497 0.0
C453 C 0.54094 0.37886 0.47209 0.0
C454 C 0.53744 0.38677 0.49774 0.0
C455 C 0.55215 0.38618 0.51062 0.0
C456 C 0.54851 0.36476 0.49904 0.0
C457 C 0.54503 0.37268 0.52469 0.0
C458 C 0.53381 0.36536 0.48616 0.0
C459 C 0.53037 0.37317 0.51182 0.0
C460 C 0.53052 0.40053 0.49676 0.0
C461 C 0.52360 0.41428 0.49576 0.0
C462 C 0.55542 0.35100 0.49969 0.0
C463 C 0.56234 0.33723 0.50030 0.0
H464 H 0.56618 0.37639 0.47596 0.0
H465 H 0.53763 0.38476 0.45375 0.0
H466 H 0.55656 0.39712 0.51886 0.0
H467 H 0.54833 0.36677 0.54302 0.0
H468 H 0.52938 0.35441 0.47799 0.0
H469 H 0.51980 0.37517 0.52087 0.0
C470 C 0.62627 0.44497 0.49348 0.0
C471 C 0.62091 0.45103 0.51953 0.0
C472 C 0.61921 0.46436 0.50283 0.0
C473 C 0.62466 0.45824 0.47677 0.0
C474 C 0.64098 0.45289 0.50148 0.0
C475 C 0.63928 0.46620 0.48477 0.0
C476 C 0.63552 0.45901 0.52754 0.0
C477 C 0.63392 0.47227 0.51081 0.0
C478 C 0.60557 0.47147 0.50377 0.0
C479 C 0.59192 0.47857 0.50474 0.0
C480 C 0.65455 0.44566 0.50075 0.0
C481 C 0.66812 0.43842 0.50005 0.0
H482 H 0.62736 0.43360 0.48725 0.0
H483 H 0.61086 0.44778 0.53174 0.0
H484 H 0.61720 0.45996 0.45951 0.0
H485 H 0.64933 0.46945 0.47257 0.0
H486 H 0.64300 0.45732 0.54478 0.0
H487 H 0.63282 0.48365 0.51698 0.0
C488 C 0.45638 0.63282 0.47138 0.0
C489 C 0.47093 0.63219 0.48460 0.0
C490 C 0.46398 0.61798 0.49672 0.0
C491 C 0.44938 0.61872 0.48351 0.0
C492 C 0.45238 0.63967 0.49785 0.0
C493 C 0.44542 0.62547 0.50997 0.0
C494 C 0.46698 0.63893 0.51107 0.0
C495 C 0.45997 0.62483 0.52319 0.0
C496 C 0.47130 0.60447 0.49594 0.0
C497 C 0.47863 0.59096 0.49514 0.0
C498 C 0.44520 0.65328 0.49849 0.0
C499 C 0.43804 0.66689 0.49911 0.0
H500 H 0.45315 0.63927 0.45372 0.0
H501 H 0.48170 0.63078 0.47568 0.0
H502 H 0.44530 0.60803 0.47386 0.0
H503 H 0.43466 0.62689 0.51890 0.0
H504 H 0.47104 0.64961 0.52078 0.0
H505 H 0.46318 0.61835 0.54083 0.0
C506 C 0.04199 0.51337 0.91381 0.0
C507 C 0.05227 0.51886 0.89116 0.0
C508 C 0.06254 0.52436 0.86851 0.0
C509 C 0.07873 0.52627 0.87337 0.0
C510 C 0.08900 0.53176 0.85070 0.0
C511 C 0.08308 0.53535 0.82319 0.0
C512 C 0.06689 0.53345 0.81833 0.0
C513 C 0.05663 0.52796 0.84099 0.0
C514 C 0.09335 0.54084 0.80052 0.0
C515 C 0.08744 0.54442 0.77300 0.0
C516 C 0.09772 0.54991 0.75034 0.0
C517 C 0.11391 0.55182 0.75522 0.0
C518 C 0.11982 0.54824 0.78275 0.0
C519 C 0.10954 0.54275 0.80540 0.0
C520 C 0.12419 0.55731 0.73257 0.0
C521 C 0.13448 0.56280 0.70995 0.0
H522 H 0.08311 0.52361 0.89374 0.0
H523 H 0.10098 0.53317 0.85430 0.0
H524 H 0.06251 0.53611 0.79795 0.0
H525 H 0.04465 0.52656 0.83740 0.0
H526 H 0.07546 0.54302 0.76938 0.0
H527 H 0.09335 0.55256 0.72995 0.0
H528 H 0.13180 0.54965 0.78636 0.0
H529 H 0.11391 0.54010 0.82579 0.0
C530 C 0.51212 0.04077 0.91382 0.0
C531 C 0.51763 0.05103 0.89117 0.0
C532 C 0.52314 0.06130 0.86852 0.0
C533 C 0.53922 0.06616 0.86551 0.0
C534 C 0.54473 0.07642 0.84285 0.0
C535 C 0.53415 0.08183 0.82320 0.0
C536 C 0.51807 0.07697 0.82621 0.0
C537 C 0.51257 0.06671 0.84887 0.0
C538 C 0.53967 0.09208 0.80053 0.0
C539 C 0.52910 0.09748 0.78086 0.0
C540 C 0.53461 0.10774 0.75820 0.0
C541 C 0.55070 0.11260 0.75522 0.0
C542 C 0.56127 0.10720 0.77489 0.0
C543 C 0.55575 0.09695 0.79755 0.0
C544 C 0.55622 0.12286 0.73256 0.0
C545 C 0.56176 0.13312 0.70992 0.0
H546 H 0.54705 0.06216 0.88007 0.0
H547 H 0.55663 0.08002 0.84063 0.0
H548 H 0.51025 0.08097 0.81165 0.0
H549 H 0.50067 0.06311 0.85110 0.0
H550 H 0.51719 0.09389 0.78307 0.0
H551 H 0.52679 0.11173 0.74362 0.0
H552 H 0.57317 0.11080 0.77268 0.0
H553 H 0.56357 0.09295 0.81212 0.0
C554 C 0.96473 0.48504 0.08656 0.0
C555 C 0.95442 0.47959 0.10919 0.0
C556 C 0.94411 0.47414 0.13181 0.0
C557 C 0.94966 0.47331 0.16070 0.0
C558 C 0.93934 0.46786 0.18331 0.0
C559 C 0.92348 0.46324 0.17705 0.0
C560 C 0.91793 0.46406 0.14817 0.0
C561 C 0.92825 0.46951 0.12555 0.0
C562 C 0.91316 0.45780 0.19968 0.0
C563 C 0.89730 0.45318 0.19343 0.0
C564 C 0.88699 0.44774 0.21606 0.0
C565 C 0.89255 0.44690 0.24494 0.0
C566 C 0.90841 0.45152 0.25119 0.0
C567 C 0.91872 0.45696 0.22855 0.0
C568 C 0.88224 0.44146 0.26758 0.0
C569 C 0.87195 0.43602 0.29024 0.0
H570 H 0.96140 0.47674 0.16533 0.0
H571 H 0.94344 0.46725 0.20469 0.0
H572 H 0.90619 0.46064 0.14353 0.0
H573 H 0.92415 0.47011 0.10417 0.0
H574 H 0.89319 0.45379 0.17205 0.0
H575 H 0.87524 0.44432 0.21145 0.0
H576 H 0.91252 0.45091 0.27256 0.0
H577 H 0.93046 0.46038 0.23317 0.0
C578 C 0.48379 0.96352 0.08658 0.0
C579 C 0.47836 0.95320 0.10921 0.0
C580 C 0.47293 0.94289 0.13185 0.0
C581 C 0.45687 0.93960 0.13746 0.0
C582 C 0.45145 0.92928 0.16009 0.0
C583 C 0.46210 0.92225 0.17711 0.0
C584 C 0.47817 0.92554 0.17151 0.0
C585 C 0.48358 0.93586 0.14888 0.0
C586 C 0.45668 0.91192 0.19973 0.0
C587 C 0.46732 0.90489 0.21675 0.0
C588 C 0.46189 0.89456 0.23937 0.0
C589 C 0.44582 0.89129 0.24498 0.0
C590 C 0.43518 0.89832 0.22796 0.0
C591 C 0.44061 0.90865 0.20534 0.0
C592 C 0.44039 0.88096 0.26760 0.0
C593 C 0.43494 0.87065 0.29021 0.0
H594 H 0.44899 0.94480 0.12485 0.0
H595 H 0.43956 0.92684 0.16423 0.0
H596 H 0.48605 0.92034 0.18411 0.0
H597 H 0.49547 0.93831 0.14473 0.0
H598 H 0.47921 0.90732 0.21261 0.0
H599 H 0.46977 0.88934 0.25196 0.0
H600 H 0.42328 0.89589 0.23210 0.0
H601 H 0.43273 0.91386 0.19274 0.0
C602 C 0.51209 0.04068 0.08654 0.0
C603 C 0.51760 0.05095 0.10933 0.0
C604 C 0.52312 0.06122 0.13212 0.0
C605 C 0.53924 0.06551 0.13616 0.0
C606 C 0.54474 0.07578 0.15894 0.0
C607 C 0.53414 0.08176 0.17770 0.0
C608 C 0.51802 0.07748 0.17367 0.0
C609 C 0.51252 0.06720 0.15089 0.0
C610 C 0.53965 0.09205 0.20048 0.0
C611 C 0.52905 0.09804 0.21923 0.0
C612 C 0.53457 0.10832 0.24200 0.0
C613 C 0.55069 0.11260 0.24604 0.0
C614 C 0.56129 0.10660 0.22728 0.0
C615 C 0.55577 0.09632 0.20451 0.0
C616 C 0.55621 0.12287 0.26881 0.0
C617 C 0.56176 0.13315 0.29158 0.0
H618 H 0.54709 0.06107 0.12227 0.0
H619 H 0.55667 0.07895 0.16193 0.0
H620 H 0.51017 0.08191 0.18755 0.0
H621 H 0.50059 0.06402 0.14791 0.0
H622 H 0.51712 0.09488 0.21626 0.0
H623 H 0.52673 0.11277 0.25588 0.0
H624 H 0.57322 0.10977 0.23026 0.0
H625 H 0.56362 0.09187 0.19063 0.0
C626 C 0.04191 0.51334 0.08657 0.0
C627 C 0.05220 0.51884 0.10935 0.0
C628 C 0.06248 0.52434 0.13213 0.0
C629 C 0.06245 0.51599 0.15853 0.0
C630 C 0.07275 0.52150 0.18130 0.0
C631 C 0.08307 0.53535 0.17766 0.0
C632 C 0.08310 0.54371 0.15126 0.0
C633 C 0.07280 0.53820 0.12850 0.0
C634 C 0.09337 0.54085 0.20043 0.0
C635 C 0.10369 0.55470 0.19679 0.0
C636 C 0.11399 0.56019 0.21957 0.0
C637 C 0.11395 0.55184 0.24597 0.0
C638 C 0.10361 0.53799 0.24961 0.0
C639 C 0.09332 0.53250 0.22683 0.0
C640 C 0.12424 0.55733 0.26875 0.0
C641 C 0.13452 0.56281 0.29156 0.0
H642 H 0.05481 0.50573 0.16123 0.0
H643 H 0.07273 0.51531 0.20084 0.0
H644 H 0.09074 0.55396 0.14857 0.0
H645 H 0.07282 0.54438 0.10896 0.0
H646 H 0.10372 0.56089 0.17725 0.0
H647 H 0.12164 0.57044 0.21688 0.0
H648 H 0.10359 0.53180 0.26915 0.0
H649 H 0.08567 0.52224 0.22952 0.0
C650 C 0.96482 0.48508 0.91364 0.0
C651 C 0.95450 0.47963 0.89089 0.0
C652 C 0.94417 0.47418 0.86813 0.0
C653 C 0.94985 0.47250 0.83960 0.0
C654 C 0.93952 0.46705 0.81685 0.0
C655 C 0.92351 0.46328 0.82263 0.0
C656 C 0.91784 0.46497 0.85116 0.0
C657 C 0.92817 0.47042 0.87390 0.0
C658 C 0.91319 0.45782 0.79988 0.0
C659 C 0.89719 0.45405 0.80566 0.0
C660 C 0.88687 0.44859 0.78290 0.0
C661 C 0.89255 0.44692 0.75437 0.0
C662 C 0.90856 0.45070 0.74860 0.0
C663 C 0.91887 0.45616 0.77135 0.0
C664 C 0.88223 0.44147 0.73161 0.0
C665 C 0.87193 0.43602 0.70882 0.0
H666 H 0.96170 0.47529 0.83532 0.0
H667 H 0.94372 0.46581 0.79574 0.0
H668 H 0.90599 0.46217 0.85544 0.0
H669 H 0.92397 0.47167 0.89502 0.0
H670 H 0.89297 0.45528 0.82677 0.0
H671 H 0.87502 0.44578 0.78717 0.0
H672 H 0.91276 0.44946 0.72748 0.0
H673 H 0.93072 0.45896 0.76709 0.0
C674 C 0.48381 0.96361 0.91360 0.0
C675 C 0.47838 0.95328 0.89084 0.0
C676 C 0.47294 0.94295 0.86808 0.0
C677 C 0.48359 0.93720 0.84908 0.0
C678 C 0.47815 0.92687 0.82634 0.0
C679 C 0.46206 0.92230 0.82258 0.0
C680 C 0.45141 0.92805 0.84158 0.0
C681 C 0.45685 0.93838 0.86432 0.0
C682 C 0.45662 0.91196 0.79985 0.0
C683 C 0.44053 0.90737 0.79610 0.0
C684 C 0.43510 0.89703 0.77335 0.0
C685 C 0.44576 0.89130 0.75435 0.0
C686 C 0.46185 0.89589 0.75809 0.0
C687 C 0.46728 0.90622 0.78084 0.0
C688 C 0.44033 0.88096 0.73160 0.0
C689 C 0.43492 0.87063 0.70883 0.0
H690 H 0.49550 0.94059 0.85186 0.0
H691 H 0.48603 0.92262 0.81228 0.0
H692 H 0.43950 0.92466 0.83881 0.0
H693 H 0.44897 0.94264 0.87838 0.0
H694 H 0.43264 0.91162 0.81015 0.0
H695 H 0.42319 0.89363 0.77058 0.0
H696 H 0.46973 0.89163 0.74403 0.0
H697 H 0.47919 0.90962 0.78362 0.0
