data_{}
_symmetry_space_group_name_H-M    P1
_symmetry_Int_Tables_number       1
_symmetry_cell_setting            triclinic
loop_
_symmetry_equiv_pos_as_xyz
'x, y, z'
_cell_length_a     90.502
_cell_length_b     91.737
_cell_length_c     48.374
_cell_angle_alpha  90.110
_cell_angle_beta   90.109
_cell_angle_gamma  90.328
loop_
_atom_site_label
_atom_site_type_symbol
_atom_site_fract_x
_atom_site_fract_y
_atom_site_fract_z
_atom_type_partial_charge
C0 C 0.97343 0.51147 0.97415 0.0
C1 C 0.97346 0.51158 0.02624 0.0
C2 C 0.98785 0.50608 0.97380 0.0
C3 C 0.98783 0.50603 0.02663 0.0
C4 C 0.99461 0.50442 0.94647 0.0
C5 C 0.99464 0.50450 0.05391 0.0
C6 C 0.96637 0.51563 0.00010 0.0
C7 C 0.99509 0.50388 0.00010 0.0
H8 H 0.04761 0.47957 0.00010 0.0
H9 H 0.01519 0.49387 0.92799 0.0
H10 H 0.01510 0.49355 0.07240 0.0
H11 H 0.06129 0.50420 0.90060 0.0
H12 H 0.05265 0.50566 0.94929 0.0
H13 H 0.02443 0.47016 0.93224 0.0
H14 H 0.03880 0.46516 0.88970 0.0
H15 H 0.06201 0.50436 0.09945 0.0
H16 H 0.05228 0.50618 0.05148 0.0
H17 H 0.02565 0.46943 0.06779 0.0
H18 H 0.04114 0.46418 0.10893 0.0
H19 H 0.95602 0.52163 0.00010 0.0
H20 H 0.98840 0.50734 0.92797 0.0
H21 H 0.98855 0.50764 0.07238 0.0
H22 H 0.94230 0.49701 0.90022 0.0
H23 H 0.95096 0.49555 0.94896 0.0
H24 H 0.97917 0.53105 0.93235 0.0
H25 H 0.96479 0.53606 0.88977 0.0
H26 H 0.94165 0.49682 0.09907 0.0
H27 H 0.95137 0.49501 0.05114 0.0
H28 H 0.97800 0.53176 0.06789 0.0
H29 H 0.96252 0.53700 0.10899 0.0
C30 C 0.05249 0.48333 0.89457 0.0
C31 C 0.05341 0.48343 0.10556 0.0
C32 C 0.05473 0.49533 0.90928 0.0
C33 C 0.05534 0.49550 0.09096 0.0
C34 C 0.04876 0.49679 0.93610 0.0
C35 C 0.04884 0.49706 0.06448 0.0
C36 C 0.03823 0.48737 0.94603 0.0
C37 C 0.03839 0.48748 0.05461 0.0
C38 C 0.03405 0.47691 0.92758 0.0
C39 C 0.03501 0.47653 0.07246 0.0
C40 C 0.04175 0.47450 0.90260 0.0
C41 C 0.04323 0.47404 0.09696 0.0
C42 C 0.03019 0.48973 0.97423 0.0
C43 C 0.03017 0.48962 0.02632 0.0
C44 C 0.01577 0.49512 0.97384 0.0
C45 C 0.01581 0.49516 0.02667 0.0
C46 C 0.00900 0.49679 0.94649 0.0
C47 C 0.00900 0.49669 0.05392 0.0
C48 C 0.03726 0.48557 0.00010 0.0
C49 C 0.00854 0.49732 0.00010 0.0
C50 C 0.95110 0.51788 0.89441 0.0
C51 C 0.95025 0.51776 0.10540 0.0
C52 C 0.94886 0.50588 0.90901 0.0
C53 C 0.94832 0.50569 0.09069 0.0
C54 C 0.95484 0.50442 0.93585 0.0
C55 C 0.95481 0.50412 0.06424 0.0
C56 C 0.96538 0.51384 0.94593 0.0
C57 C 0.96526 0.51371 0.05450 0.0
C58 C 0.96955 0.52430 0.92758 0.0
C59 C 0.96864 0.52466 0.07245 0.0
C60 C 0.96184 0.52671 0.90257 0.0
C61 C 0.96043 0.52715 0.09693 0.0
C62 C 0.49065 0.97250 0.97407 0.0
C63 C 0.49054 0.97253 0.02616 0.0
C64 C 0.49617 0.98677 0.97376 0.0
C65 C 0.49621 0.98675 0.02659 0.0
C66 C 0.49787 0.99345 0.94645 0.0
C67 C 0.49779 0.99349 0.05389 0.0
C68 C 0.48641 0.96550 0.00010 0.0
C69 C 0.49842 0.99393 0.00010 0.0
H70 H 0.52325 0.04594 0.00010 0.0
H71 H 0.50864 0.01385 0.92805 0.0
H72 H 0.50896 0.01376 0.07246 0.0
H73 H 0.49832 0.05924 0.90058 0.0
H74 H 0.49682 0.05070 0.94926 0.0
H75 H 0.53270 0.02315 0.93247 0.0
H76 H 0.53783 0.03736 0.88997 0.0
H77 H 0.49816 0.05995 0.09943 0.0
H78 H 0.49629 0.05033 0.05144 0.0
H79 H 0.53345 0.02436 0.06802 0.0
H80 H 0.53882 0.03968 0.10920 0.0
H81 H 0.48029 0.95524 0.00010 0.0
H82 H 0.49489 0.98731 0.92792 0.0
H83 H 0.49459 0.98745 0.07233 0.0
H84 H 0.50520 0.94190 0.90025 0.0
H85 H 0.50671 0.95046 0.94899 0.0
H86 H 0.47083 0.97801 0.93213 0.0
H87 H 0.46570 0.96378 0.88951 0.0
H88 H 0.50539 0.94127 0.09909 0.0
H89 H 0.50726 0.95087 0.05118 0.0
H90 H 0.47010 0.97685 0.06766 0.0
H91 H 0.46473 0.96154 0.10872 0.0
C92 C 0.51945 0.05072 0.89470 0.0
C93 C 0.51935 0.05163 0.10570 0.0
C94 C 0.50730 0.05284 0.90932 0.0
C95 C 0.50712 0.05344 0.09100 0.0
C96 C 0.50580 0.04694 0.93613 0.0
C97 C 0.50552 0.04702 0.06452 0.0
C98 C 0.51531 0.03662 0.94614 0.0
C99 C 0.51519 0.03678 0.05471 0.0
C100 C 0.52589 0.03258 0.92776 0.0
C101 C 0.52628 0.03354 0.07264 0.0
C102 C 0.52836 0.04020 0.90279 0.0
C103 C 0.52884 0.04167 0.09716 0.0
C104 C 0.51289 0.02867 0.97431 0.0
C105 C 0.51300 0.02866 0.02641 0.0
C106 C 0.50737 0.01440 0.97388 0.0
C107 C 0.50733 0.01444 0.02671 0.0
C108 C 0.50566 0.00771 0.94652 0.0
C109 C 0.50576 0.00772 0.05396 0.0
C110 C 0.51712 0.03568 0.00010 0.0
C111 C 0.50512 0.00725 0.00010 0.0
C112 C 0.48407 0.95042 0.89428 0.0
C113 C 0.48420 0.94958 0.10527 0.0
C114 C 0.49623 0.94831 0.90897 0.0
C115 C 0.49643 0.94778 0.09065 0.0
C116 C 0.49773 0.95422 0.93582 0.0
C117 C 0.49803 0.95419 0.06421 0.0
C118 C 0.48822 0.96454 0.94583 0.0
C119 C 0.48835 0.96442 0.05440 0.0
C120 C 0.47763 0.96857 0.92740 0.0
C121 C 0.47727 0.96767 0.07228 0.0
C122 C 0.47516 0.96094 0.90238 0.0
C123 C 0.47472 0.95955 0.09674 0.0
Fe124 Fe 0.50181 0.50059 0.50056 0.0
N125 N 0.48058 0.49806 0.49815 0.0
N126 N 0.46914 0.49582 0.51603 0.0
N127 N 0.46045 0.49322 0.47259 0.0
N128 N 0.49914 0.50157 0.45943 0.0
H129 H 0.48522 0.47305 0.51572 0.0
H130 H 0.52357 0.47956 0.47966 0.0
H131 H 0.48929 0.44865 0.51787 0.0
H132 H 0.52908 0.45542 0.48266 0.0
N133 N 0.49946 0.52207 0.50249 0.0
H134 H 0.47146 0.49734 0.41724 0.0
N135 N 0.52303 0.50312 0.50298 0.0
N136 N 0.53447 0.50536 0.48509 0.0
N137 N 0.54317 0.50796 0.52854 0.0
N138 N 0.50447 0.49961 0.54169 0.0
H139 H 0.51924 0.50665 0.44580 0.0
H140 H 0.51375 0.50730 0.39908 0.0
H141 H 0.48966 0.50240 0.38402 0.0
H142 H 0.51432 0.55253 0.48325 0.0
H143 H 0.51840 0.52813 0.48540 0.0
H144 H 0.48005 0.52162 0.52146 0.0
H145 H 0.47453 0.54576 0.51846 0.0
H146 H 0.53216 0.50384 0.58388 0.0
H147 H 0.51396 0.49878 0.61710 0.0
H148 H 0.48987 0.49388 0.60204 0.0
H149 H 0.48438 0.49453 0.55532 0.0
C150 C 0.50996 0.44905 0.50138 0.0
C151 C 0.49671 0.45488 0.51057 0.0
C152 C 0.49435 0.46943 0.50906 0.0
C153 C 0.51666 0.47324 0.48835 0.0
C154 C 0.51994 0.45883 0.48973 0.0
C155 C 0.47498 0.49645 0.47269 0.0
C156 C 0.45762 0.49283 0.49978 0.0
C157 C 0.48506 0.49902 0.45024 0.0
C158 C 0.48136 0.49925 0.42279 0.0
C159 C 0.49204 0.50226 0.40315 0.0
C160 C 0.50620 0.50508 0.41205 0.0
C161 C 0.50942 0.50467 0.43997 0.0
C162 C 0.49366 0.55213 0.49974 0.0
C163 C 0.50691 0.54630 0.49055 0.0
C164 C 0.50927 0.53175 0.49206 0.0
C165 C 0.48696 0.52794 0.51277 0.0
C166 C 0.48367 0.54235 0.51140 0.0
C167 C 0.52864 0.50473 0.52844 0.0
C168 C 0.54599 0.50835 0.50134 0.0
C169 C 0.51855 0.50216 0.55088 0.0
C170 C 0.52226 0.50193 0.57834 0.0
C171 C 0.51158 0.49892 0.59797 0.0
C172 C 0.49742 0.49610 0.58907 0.0
C173 C 0.49420 0.49651 0.56116 0.0
N174 N 0.50416 0.47911 0.49864 0.0
C175 C 0.15150 0.42452 0.31701 0.0
C176 C 0.15447 0.41077 0.33432 0.0
C177 C 0.16494 0.41166 0.35940 0.0
C178 C 0.16806 0.39799 0.37688 0.0
C179 C 0.17859 0.39898 0.40188 0.0
C180 C 0.18598 0.41362 0.40930 0.0
C181 C 0.18282 0.42728 0.39189 0.0
C182 C 0.17231 0.42630 0.36692 0.0
C183 C 0.19624 0.40104 0.45109 0.0
C184 C 0.20554 0.40545 0.47632 0.0
C185 C 0.22245 0.40417 0.47530 0.0
C186 C 0.23181 0.41121 0.49834 0.0
C187 C 0.22427 0.41789 0.52389 0.0
C188 C 0.20730 0.41789 0.52602 0.0
C189 C 0.19793 0.41168 0.50217 0.0
C190 C 0.18097 0.41277 0.50320 0.0
C191 C 0.22998 0.39698 0.45020 0.0
C192 C 0.23372 0.42503 0.54676 0.0
C193 C 0.24871 0.41178 0.49580 0.0
C194 C 0.26899 0.42937 0.48902 0.0
C195 C 0.27908 0.41615 0.49366 0.0
C196 C 0.29594 0.41830 0.49523 0.0
C197 C 0.30267 0.43365 0.49214 0.0
C198 C 0.29258 0.44686 0.48726 0.0
C199 C 0.27572 0.44471 0.48570 0.0
C200 C 0.31953 0.43576 0.49399 0.0
C201 C 0.32954 0.42251 0.49900 0.0
C202 C 0.19964 0.42483 0.55112 0.0
C203 C 0.19035 0.41851 0.59718 0.0
C204 C 0.18532 0.43447 0.59907 0.0
C205 C 0.17446 0.43911 0.62184 0.0
C206 C 0.16862 0.42775 0.64259 0.0
C207 C 0.17369 0.41180 0.64070 0.0
C208 C 0.18457 0.40717 0.61797 0.0
C209 C 0.15765 0.43229 0.66522 0.0
C210 C 0.15179 0.42082 0.68569 0.0
O211 O 0.19615 0.41474 0.43389 0.0
O212 O 0.20040 0.41380 0.57411 0.0
O213 O 0.25247 0.42733 0.48840 0.0
H214 H 0.15705 0.43529 0.32281 0.0
H215 H 0.14894 0.39998 0.32858 0.0
H216 H 0.16259 0.38715 0.37131 0.0
H217 H 0.18090 0.38889 0.41489 0.0
H218 H 0.18826 0.43813 0.39751 0.0
H219 H 0.16998 0.43640 0.35398 0.0
H220 H 0.20158 0.39168 0.43933 0.0
H221 H 0.18455 0.39801 0.45776 0.0
H222 H 0.17765 0.42015 0.52110 0.0
H223 H 0.17595 0.40146 0.50627 0.0
H224 H 0.17679 0.41757 0.48294 0.0
H225 H 0.22207 0.39695 0.43183 0.0
H226 H 0.23296 0.38527 0.45564 0.0
H227 H 0.24047 0.40324 0.44462 0.0
H228 H 0.22619 0.43001 0.56307 0.0
H229 H 0.24092 0.43392 0.53723 0.0
H230 H 0.24108 0.41646 0.55673 0.0
H231 H 0.25399 0.40881 0.51644 0.0
H232 H 0.25264 0.40405 0.47890 0.0
H233 H 0.27406 0.40479 0.49606 0.0
H234 H 0.30343 0.40853 0.49873 0.0
H235 H 0.29758 0.45822 0.48488 0.0
H236 H 0.26821 0.45448 0.48221 0.0
H237 H 0.32458 0.44711 0.49170 0.0
H238 H 0.32445 0.41118 0.50127 0.0
H239 H 0.20540 0.43538 0.55759 0.0
H240 H 0.18760 0.42708 0.54574 0.0
H241 H 0.18957 0.44282 0.58353 0.0
H242 H 0.17069 0.45092 0.62328 0.0
H243 H 0.16935 0.40341 0.65608 0.0
H244 H 0.18826 0.39534 0.61642 0.0
H245 H 0.15385 0.44409 0.66679 0.0
H246 H 0.15561 0.40903 0.68403 0.0
C247 C 0.57963 0.14888 0.31758 0.0
C248 C 0.59357 0.15196 0.33500 0.0
C249 C 0.59267 0.16228 0.36007 0.0
C250 C 0.60653 0.16552 0.37765 0.0
C251 C 0.60552 0.17589 0.40265 0.0
C252 C 0.59068 0.18302 0.40996 0.0
C253 C 0.57683 0.17974 0.39245 0.0
C254 C 0.57783 0.16939 0.36749 0.0
C255 C 0.60343 0.19329 0.45184 0.0
C256 C 0.59896 0.20241 0.47704 0.0
C257 C 0.60026 0.21911 0.47602 0.0
C258 C 0.59312 0.22826 0.49902 0.0
C259 C 0.58635 0.22075 0.52452 0.0
C260 C 0.58635 0.20401 0.52665 0.0
C261 C 0.59264 0.19483 0.50284 0.0
C262 C 0.59154 0.17809 0.50387 0.0
C263 C 0.60755 0.22662 0.45098 0.0
C264 C 0.57912 0.22999 0.54734 0.0
C265 C 0.59255 0.24493 0.49647 0.0
C266 C 0.57472 0.26473 0.48956 0.0
C267 C 0.58812 0.27484 0.49430 0.0
C268 C 0.58595 0.29144 0.49585 0.0
C269 C 0.57038 0.29792 0.49265 0.0
C270 C 0.55699 0.28780 0.48768 0.0
C271 C 0.55917 0.27119 0.48614 0.0
C272 C 0.56824 0.31452 0.49449 0.0
C273 C 0.58168 0.32455 0.49959 0.0
C274 C 0.57932 0.19637 0.55170 0.0
C275 C 0.58573 0.18728 0.59780 0.0
C276 C 0.56954 0.18214 0.59958 0.0
C277 C 0.56484 0.17136 0.62232 0.0
C278 C 0.57635 0.16574 0.64314 0.0
C279 C 0.59253 0.17092 0.64137 0.0
C280 C 0.59722 0.18170 0.61868 0.0
C281 C 0.57175 0.15486 0.66574 0.0
C282 C 0.58338 0.14921 0.68629 0.0
O283 O 0.58955 0.19304 0.43454 0.0
O284 O 0.59050 0.19725 0.57477 0.0
O285 O 0.57679 0.24846 0.48896 0.0
H286 H 0.56871 0.15423 0.32331 0.0
H287 H 0.60450 0.14663 0.32934 0.0
H288 H 0.61751 0.16025 0.37217 0.0
H289 H 0.61575 0.17829 0.41572 0.0
H290 H 0.56584 0.18499 0.39799 0.0
H291 H 0.56759 0.16698 0.35448 0.0
H292 H 0.61292 0.19866 0.44015 0.0
H293 H 0.60651 0.18179 0.45853 0.0
H294 H 0.58406 0.17472 0.52172 0.0
H295 H 0.60300 0.17326 0.50702 0.0
H296 H 0.58668 0.17391 0.48357 0.0
H297 H 0.60758 0.21881 0.43261 0.0
H298 H 0.61942 0.22969 0.45651 0.0
H299 H 0.60120 0.23690 0.44536 0.0
H300 H 0.57407 0.22251 0.56361 0.0
H301 H 0.57011 0.23699 0.53775 0.0
H302 H 0.58780 0.23735 0.55737 0.0
H303 H 0.59556 0.25017 0.51713 0.0
H304 H 0.60039 0.24889 0.47963 0.0
H305 H 0.59963 0.27001 0.49679 0.0
H306 H 0.59585 0.29895 0.49943 0.0
H307 H 0.54548 0.29261 0.48521 0.0
H308 H 0.54927 0.26367 0.48257 0.0
H309 H 0.55674 0.31938 0.49211 0.0
H310 H 0.59316 0.31966 0.50195 0.0
H311 H 0.56862 0.20193 0.55809 0.0
H312 H 0.57704 0.18446 0.54630 0.0
H313 H 0.56108 0.18623 0.58398 0.0
H314 H 0.55287 0.16751 0.62367 0.0
H315 H 0.60103 0.16673 0.65682 0.0
H316 H 0.60921 0.18548 0.61721 0.0
H317 H 0.55979 0.15098 0.66723 0.0
H318 H 0.59533 0.15311 0.68473 0.0
C319 C 0.85215 0.57779 0.68368 0.0
C320 C 0.84902 0.56404 0.66626 0.0
C321 C 0.83856 0.56492 0.64120 0.0
C322 C 0.83527 0.55125 0.62362 0.0
C323 C 0.82475 0.55224 0.59863 0.0
C324 C 0.81753 0.56689 0.59132 0.0
C325 C 0.82085 0.58055 0.60883 0.0
C326 C 0.83135 0.57956 0.63379 0.0
C327 C 0.80712 0.55431 0.54944 0.0
C328 C 0.79786 0.55872 0.52424 0.0
C329 C 0.78094 0.55744 0.52527 0.0
C330 C 0.77166 0.56448 0.50228 0.0
C331 C 0.77927 0.57116 0.47678 0.0
C332 C 0.79624 0.57115 0.47464 0.0
C333 C 0.80555 0.56495 0.49844 0.0
C334 C 0.82252 0.56604 0.49741 0.0
C335 C 0.77333 0.55025 0.55032 0.0
C336 C 0.76990 0.57829 0.45396 0.0
C337 C 0.75477 0.56505 0.50483 0.0
C338 C 0.73469 0.58263 0.51175 0.0
C339 C 0.72445 0.56941 0.50702 0.0
C340 C 0.70762 0.57156 0.50547 0.0
C341 C 0.70106 0.58692 0.50867 0.0
C342 C 0.71131 0.60013 0.51365 0.0
C343 C 0.72814 0.59798 0.51518 0.0
C344 C 0.68423 0.58903 0.50685 0.0
C345 C 0.67406 0.57577 0.50175 0.0
C346 C 0.80398 0.57809 0.44959 0.0
C347 C 0.81319 0.57177 0.40348 0.0
C348 C 0.81841 0.58774 0.40170 0.0
C349 C 0.82932 0.59238 0.37896 0.0
C350 C 0.83502 0.58102 0.35813 0.0
C351 C 0.82977 0.56506 0.35990 0.0
C352 C 0.81884 0.56043 0.38260 0.0
C353 C 0.84605 0.58556 0.33553 0.0
C354 C 0.85177 0.57408 0.31497 0.0
O355 O 0.80736 0.56800 0.56674 0.0
O356 O 0.80309 0.56706 0.42652 0.0
O357 O 0.75119 0.58059 0.51235 0.0
H358 H 0.84673 0.58856 0.67795 0.0
H359 H 0.85442 0.55324 0.67192 0.0
H360 H 0.84061 0.54041 0.62910 0.0
H361 H 0.82232 0.54215 0.58555 0.0
H362 H 0.81553 0.59139 0.60330 0.0
H363 H 0.83380 0.58966 0.64680 0.0
H364 H 0.80167 0.54494 0.56114 0.0
H365 H 0.81877 0.55127 0.54274 0.0
H366 H 0.82593 0.57341 0.47956 0.0
H367 H 0.82741 0.55473 0.49425 0.0
H368 H 0.82676 0.57083 0.51771 0.0
H369 H 0.78124 0.55021 0.56868 0.0
H370 H 0.77021 0.53853 0.54479 0.0
H371 H 0.76291 0.55650 0.55594 0.0
H372 H 0.77749 0.58327 0.43769 0.0
H373 H 0.76281 0.58719 0.46356 0.0
H374 H 0.76244 0.56973 0.44393 0.0
H375 H 0.74945 0.56208 0.48418 0.0
H376 H 0.75075 0.55731 0.52168 0.0
H377 H 0.72934 0.55806 0.50453 0.0
H378 H 0.70001 0.56179 0.50190 0.0
H379 H 0.70644 0.61149 0.51612 0.0
H380 H 0.73577 0.60775 0.51874 0.0
H381 H 0.67930 0.60037 0.50922 0.0
H382 H 0.67902 0.56444 0.49939 0.0
H383 H 0.79835 0.58865 0.44320 0.0
H384 H 0.81605 0.58034 0.45498 0.0
H385 H 0.81426 0.59608 0.41730 0.0
H386 H 0.83323 0.60419 0.37761 0.0
H387 H 0.83401 0.55668 0.34446 0.0
H388 H 0.81501 0.54861 0.38407 0.0
H389 H 0.84998 0.59736 0.33404 0.0
H390 H 0.84781 0.56229 0.31654 0.0
C391 C 0.42281 0.85231 0.68310 0.0
C392 C 0.43675 0.84938 0.66578 0.0
C393 C 0.43585 0.83905 0.64072 0.0
C394 C 0.44971 0.83597 0.62323 0.0
C395 C 0.44870 0.82558 0.59823 0.0
C396 C 0.43386 0.81828 0.59082 0.0
C397 C 0.42001 0.82140 0.60823 0.0
C398 C 0.42102 0.83177 0.63320 0.0
C399 C 0.44661 0.80815 0.54903 0.0
C400 C 0.44214 0.79897 0.52380 0.0
C401 C 0.44344 0.78229 0.52484 0.0
C402 C 0.43631 0.77305 0.50179 0.0
C403 C 0.42953 0.78049 0.47624 0.0
C404 C 0.42954 0.79723 0.47411 0.0
C405 C 0.43583 0.80648 0.49796 0.0
C406 C 0.43472 0.82321 0.49691 0.0
C407 C 0.45073 0.77486 0.54994 0.0
C408 C 0.42230 0.77116 0.45338 0.0
C409 C 0.43573 0.75639 0.50434 0.0
C410 C 0.41791 0.73638 0.51114 0.0
C411 C 0.43130 0.72643 0.50649 0.0
C412 C 0.42913 0.70979 0.50494 0.0
C413 C 0.41356 0.70314 0.50803 0.0
C414 C 0.40018 0.71311 0.51290 0.0
C415 C 0.40235 0.72974 0.51445 0.0
C416 C 0.41143 0.68652 0.50618 0.0
C417 C 0.42486 0.67664 0.50118 0.0
C418 C 0.42250 0.80478 0.44900 0.0
C419 C 0.42891 0.81395 0.40294 0.0
C420 C 0.41273 0.81890 0.40105 0.0
C421 C 0.40802 0.82962 0.37827 0.0
C422 C 0.41954 0.83538 0.35753 0.0
C423 C 0.43571 0.83037 0.35942 0.0
C424 C 0.44040 0.81965 0.38215 0.0
C425 C 0.41494 0.84620 0.33489 0.0
C426 C 0.42657 0.85198 0.31442 0.0
O427 O 0.43273 0.80824 0.56623 0.0
O428 O 0.43369 0.80403 0.42602 0.0
O429 O 0.41997 0.75267 0.51175 0.0
H430 H 0.41189 0.84684 0.67730 0.0
H431 H 0.44769 0.85483 0.67152 0.0
H432 H 0.46069 0.84136 0.62880 0.0
H433 H 0.45893 0.82329 0.58523 0.0
H434 H 0.40902 0.81603 0.60262 0.0
H435 H 0.41078 0.83407 0.64613 0.0
H436 H 0.45611 0.80288 0.56080 0.0
H437 H 0.44969 0.81969 0.54236 0.0
H438 H 0.42725 0.82649 0.47901 0.0
H439 H 0.44619 0.82816 0.49384 0.0
H440 H 0.42986 0.82734 0.51718 0.0
H441 H 0.45076 0.78267 0.56830 0.0
H442 H 0.46261 0.77192 0.54449 0.0
H443 H 0.44439 0.76452 0.55552 0.0
H444 H 0.41725 0.77859 0.43707 0.0
H445 H 0.41329 0.76406 0.46291 0.0
H446 H 0.43099 0.76390 0.44341 0.0
H447 H 0.43874 0.75118 0.48371 0.0
H448 H 0.44357 0.75251 0.52124 0.0
H449 H 0.44282 0.73138 0.50409 0.0
H450 H 0.43903 0.70240 0.50144 0.0
H451 H 0.38866 0.70817 0.51529 0.0
H452 H 0.39245 0.73715 0.51794 0.0
H453 H 0.39993 0.68153 0.50848 0.0
H454 H 0.43634 0.68166 0.49890 0.0
H455 H 0.41180 0.79911 0.44254 0.0
H456 H 0.42022 0.81667 0.45438 0.0
H457 H 0.40427 0.81472 0.41659 0.0
H458 H 0.39605 0.83334 0.37683 0.0
H459 H 0.44421 0.83466 0.34403 0.0
H460 H 0.45239 0.81600 0.38370 0.0
H461 H 0.40297 0.84994 0.33332 0.0
H462 H 0.43852 0.84821 0.31607 0.0
C463 C 0.41153 0.46419 0.50048 0.0
N464 N 0.39674 0.47240 0.50100 0.0
N465 N 0.38206 0.46386 0.50097 0.0
C466 C 0.38214 0.44709 0.50043 0.0
N467 N 0.39693 0.43884 0.49991 0.0
N468 N 0.41163 0.44740 0.49994 0.0
C469 C 0.42621 0.47277 0.50052 0.0
C470 C 0.44098 0.48119 0.50055 0.0
C471 C 0.36739 0.43865 0.50040 0.0
C472 C 0.35259 0.43028 0.50038 0.0
C473 C 0.53997 0.40514 0.50077 0.0
N474 N 0.53154 0.39052 0.50084 0.0
N475 N 0.54010 0.37607 0.50087 0.0
C476 C 0.55710 0.37623 0.50084 0.0
N477 N 0.56557 0.39086 0.50078 0.0
N478 N 0.55700 0.40532 0.50075 0.0
C479 C 0.53138 0.41959 0.50074 0.0
C480 C 0.52294 0.43412 0.50071 0.0
C481 C 0.56556 0.36171 0.50088 0.0
C482 C 0.57393 0.34715 0.50092 0.0
C483 C 0.59209 0.53699 0.50047 0.0
N484 N 0.60688 0.52878 0.50036 0.0
N485 N 0.62156 0.53732 0.50034 0.0
C486 C 0.62148 0.55409 0.50044 0.0
N487 N 0.60669 0.56234 0.50056 0.0
N488 N 0.59198 0.55379 0.50058 0.0
C489 C 0.57740 0.52842 0.50050 0.0
C490 C 0.56264 0.51999 0.50053 0.0
C491 C 0.63623 0.56254 0.50042 0.0
C492 C 0.65103 0.57090 0.50041 0.0
C493 C 0.46364 0.59603 0.50019 0.0
N494 N 0.47207 0.61066 0.50012 0.0
N495 N 0.46351 0.62511 0.50003 0.0
C496 C 0.44651 0.62495 0.50003 0.0
N497 N 0.43804 0.61032 0.50011 0.0
N498 N 0.44662 0.59585 0.50019 0.0
C499 C 0.47223 0.58158 0.50028 0.0
C500 C 0.48067 0.56706 0.50037 0.0
C501 C 0.43805 0.63946 0.49995 0.0
C502 C 0.42967 0.65402 0.49987 0.0
C503 C 0.08513 0.46168 0.82619 0.0
C504 C 0.08859 0.46024 0.85725 0.0
C505 C 0.07813 0.46699 0.87878 0.0
C506 C 0.06422 0.47518 0.86926 0.0
C507 C 0.06076 0.47662 0.83821 0.0
C508 C 0.07122 0.46987 0.81669 0.0
C509 C 0.09556 0.45498 0.80458 0.0
C510 C 0.10593 0.44831 0.78281 0.0
C511 C 0.11624 0.44169 0.76091 0.0
C512 C 0.13027 0.43351 0.76987 0.0
C513 C 0.14057 0.42694 0.74787 0.0
C514 C 0.13684 0.42854 0.71694 0.0
C515 C 0.12281 0.43672 0.70801 0.0
C516 C 0.11252 0.44329 0.72999 0.0
H517 H 0.09889 0.45418 0.86430 0.0
H518 H 0.08069 0.46593 0.90177 0.0
H519 H 0.05046 0.48267 0.83115 0.0
H520 H 0.06866 0.47093 0.79369 0.0
H521 H 0.13303 0.43234 0.79276 0.0
H522 H 0.15095 0.42087 0.75448 0.0
H523 H 0.12005 0.43790 0.68512 0.0
H524 H 0.10213 0.44933 0.72339 0.0
C525 C 0.54176 0.08278 0.82608 0.0
C526 C 0.55160 0.07528 0.84777 0.0
C527 C 0.54463 0.06506 0.86940 0.0
C528 C 0.52782 0.06232 0.86932 0.0
C529 C 0.51799 0.06981 0.84762 0.0
C530 C 0.52497 0.08003 0.82602 0.0
C531 C 0.54867 0.09304 0.80446 0.0
C532 C 0.55548 0.10332 0.78276 0.0
C533 C 0.56220 0.11362 0.76100 0.0
C534 C 0.57896 0.11661 0.76070 0.0
C535 C 0.58562 0.12695 0.73894 0.0
C536 C 0.57552 0.13430 0.71747 0.0
C537 C 0.55877 0.13130 0.71778 0.0
C538 C 0.55211 0.12097 0.73955 0.0
H539 H 0.56404 0.07732 0.84784 0.0
H540 H 0.55191 0.05951 0.88546 0.0
H541 H 0.50556 0.06778 0.84755 0.0
H542 H 0.51769 0.08558 0.80996 0.0
H543 H 0.58643 0.11117 0.77659 0.0
H544 H 0.59803 0.12916 0.73868 0.0
H545 H 0.55129 0.13674 0.70190 0.0
H546 H 0.53971 0.11873 0.73976 0.0
C547 C 0.91853 0.53902 0.17545 0.0
C548 C 0.93520 0.53753 0.18123 0.0
C549 C 0.94536 0.53072 0.15927 0.0
C550 C 0.93887 0.52543 0.13154 0.0
C551 C 0.92222 0.52694 0.12577 0.0
C552 C 0.91205 0.53373 0.14772 0.0
C553 C 0.90831 0.54579 0.19735 0.0
C554 C 0.89800 0.55253 0.21913 0.0
C555 C 0.88762 0.55925 0.24080 0.0
C556 C 0.89381 0.56457 0.26876 0.0
C557 C 0.88336 0.57125 0.29039 0.0
C558 C 0.86674 0.57263 0.28406 0.0
C559 C 0.86056 0.56731 0.25610 0.0
C560 C 0.87100 0.56063 0.23448 0.0
H561 H 0.94000 0.54144 0.20177 0.0
H562 H 0.95770 0.52961 0.16355 0.0
H563 H 0.91741 0.52302 0.10524 0.0
H564 H 0.89972 0.53484 0.14345 0.0
H565 H 0.90611 0.56355 0.27344 0.0
H566 H 0.88794 0.57520 0.31108 0.0
H567 H 0.84826 0.56833 0.25141 0.0
H568 H 0.86643 0.55671 0.21377 0.0
C569 C 0.46293 0.91784 0.17525 0.0
C570 C 0.47922 0.92262 0.17761 0.0
C571 C 0.48598 0.93281 0.15569 0.0
C572 C 0.47645 0.93822 0.13143 0.0
C573 C 0.46015 0.93344 0.12909 0.0
C574 C 0.45340 0.92325 0.15100 0.0
C575 C 0.45612 0.90763 0.19708 0.0
C576 C 0.44923 0.89742 0.21880 0.0
C577 C 0.44225 0.88720 0.24041 0.0
C578 C 0.45155 0.88157 0.26480 0.0
C579 C 0.44453 0.87132 0.28633 0.0
C580 C 0.42819 0.86672 0.28348 0.0
C581 C 0.41889 0.87235 0.25910 0.0
C582 C 0.42592 0.88259 0.23757 0.0
H583 H 0.48628 0.91860 0.19556 0.0
H584 H 0.49805 0.93634 0.15742 0.0
H585 H 0.45309 0.93745 0.11115 0.0
H586 H 0.44134 0.91971 0.14927 0.0
H587 H 0.46364 0.88497 0.26690 0.0
H588 H 0.45140 0.86716 0.30441 0.0
H589 H 0.40681 0.86895 0.25698 0.0
H590 H 0.41904 0.88678 0.21953 0.0
C591 C 0.54134 0.08345 0.17517 0.0
C592 C 0.55118 0.07544 0.15417 0.0
C593 C 0.54413 0.06522 0.13249 0.0
C594 C 0.52725 0.06302 0.13180 0.0
C595 C 0.51742 0.07103 0.15279 0.0
C596 C 0.52447 0.08124 0.17446 0.0
C597 C 0.54833 0.09365 0.19693 0.0
C598 C 0.55522 0.10387 0.21876 0.0
C599 C 0.56202 0.11411 0.24067 0.0
C600 C 0.57887 0.11645 0.24191 0.0
C601 C 0.58562 0.12667 0.26393 0.0
C602 C 0.57551 0.13455 0.28467 0.0
C603 C 0.55867 0.13220 0.28341 0.0
C604 C 0.55192 0.12198 0.26142 0.0
H605 H 0.56368 0.07707 0.15469 0.0
H606 H 0.55141 0.05929 0.11695 0.0
H607 H 0.50493 0.06941 0.15227 0.0
H608 H 0.51719 0.08717 0.19001 0.0
H609 H 0.58634 0.11061 0.22657 0.0
H610 H 0.59809 0.12842 0.26483 0.0
H611 H 0.55119 0.13803 0.29876 0.0
H612 H 0.53945 0.12026 0.26046 0.0
C613 C 0.08573 0.46265 0.17523 0.0
C614 C 0.09041 0.47647 0.15940 0.0
C615 C 0.08000 0.48307 0.13758 0.0
C616 C 0.06491 0.47586 0.13163 0.0
C617 C 0.06024 0.46205 0.14748 0.0
C618 C 0.07064 0.45545 0.16928 0.0
C619 C 0.09610 0.45598 0.19701 0.0
C620 C 0.10641 0.44924 0.21882 0.0
C621 C 0.11665 0.44242 0.24064 0.0
C622 C 0.13182 0.44937 0.24690 0.0
C623 C 0.14205 0.44248 0.26870 0.0
C624 C 0.13708 0.42866 0.28425 0.0
C625 C 0.12190 0.42172 0.27799 0.0
C626 C 0.11169 0.42860 0.25619 0.0
H627 H 0.10158 0.48180 0.16379 0.0
H628 H 0.08346 0.49329 0.12585 0.0
H629 H 0.04907 0.45671 0.14309 0.0
H630 H 0.06718 0.44522 0.18101 0.0
H631 H 0.13550 0.45959 0.23538 0.0
H632 H 0.15327 0.44762 0.27337 0.0
H633 H 0.11823 0.41149 0.28950 0.0
H634 H 0.10045 0.42348 0.25157 0.0
C635 C 0.91830 0.53918 0.82585 0.0
C636 C 0.91222 0.52878 0.84810 0.0
C637 C 0.92274 0.52217 0.86971 0.0
C638 C 0.93934 0.52596 0.86906 0.0
C639 C 0.94541 0.53636 0.84682 0.0
C640 C 0.93489 0.54297 0.82522 0.0
C641 C 0.90784 0.54580 0.80416 0.0
C642 C 0.89746 0.55246 0.78239 0.0
C643 C 0.88716 0.55917 0.76053 0.0
C644 C 0.87053 0.55550 0.76062 0.0
C645 C 0.86028 0.56221 0.73866 0.0
C646 C 0.86666 0.57259 0.71664 0.0
C647 C 0.88329 0.57625 0.71657 0.0
C648 C 0.89353 0.56954 0.73851 0.0
H649 H 0.89993 0.52597 0.84857 0.0
H650 H 0.91824 0.51447 0.88618 0.0
H651 H 0.95769 0.53917 0.84634 0.0
H652 H 0.93939 0.55066 0.80874 0.0
H653 H 0.86582 0.54782 0.77691 0.0
H654 H 0.84797 0.55951 0.73873 0.0
H655 H 0.88801 0.58393 0.70028 0.0
H656 H 0.90584 0.57226 0.73849 0.0
C657 C 0.46244 0.91791 0.82532 0.0
C658 C 0.47727 0.91420 0.83922 0.0
C659 C 0.48397 0.92462 0.86095 0.0
C660 C 0.47584 0.93873 0.86878 0.0
C661 C 0.46101 0.94243 0.85488 0.0
C662 C 0.45432 0.93202 0.83316 0.0
C663 C 0.45571 0.90756 0.80354 0.0
C664 C 0.44889 0.89727 0.78174 0.0
C665 C 0.44201 0.88705 0.75990 0.0
C666 C 0.44994 0.87290 0.75159 0.0
C667 C 0.44302 0.86273 0.72968 0.0
C668 C 0.42817 0.86671 0.71611 0.0
C669 C 0.42024 0.88085 0.72444 0.0
C670 C 0.42716 0.89102 0.74633 0.0
H671 H 0.48329 0.90375 0.83342 0.0
H672 H 0.49495 0.92187 0.87124 0.0
H673 H 0.45499 0.95288 0.86068 0.0
H674 H 0.44334 0.93477 0.82286 0.0
H675 H 0.46093 0.86996 0.76163 0.0
H676 H 0.44888 0.85225 0.72354 0.0
H677 H 0.40925 0.88380 0.71440 0.0
H678 H 0.42129 0.90149 0.75252 0.0
